19
Iteration:  2775charge 0 multiplicity 1
 C         0.164095         0.542399         0.272874
 C         1.622268         0.109908         0.186407
 C         2.151255        -0.648028         1.291211
 C         3.485990        -1.224366         0.907152
 C         4.149389        -0.430436        -0.220291
 O         3.989530         1.107668         0.163010
 C         2.786741         1.116765        -0.574707
 C         3.036939        -0.198614        -1.276036
 O         1.862382        -0.973549        -0.913156
 H        -0.166377         1.210438         1.130043
 H        -0.090826         0.969711        -0.677155
 H        -0.359201        -0.377573         0.407779
 H         2.179399        -0.147491         2.239648
 H         1.468375        -1.552755         1.597450
 H         4.119596        -1.219437         1.891282
 H         3.446993        -2.312090         0.706652
 H         5.270529        -0.520334        -0.625566
 H         2.518657         2.065583        -1.035850
 H         3.242953        -0.242362        -2.341376
