19
Iteration:  1539
 C         0.185570         0.492115         0.168636
 C         1.624704         0.078723         0.173385
 C         2.202911        -0.540490         1.443661
 C         3.489666        -1.215810         0.910233
 C         4.139649        -0.356766        -0.134614
 O         4.028405         1.094166         0.104242
 C         2.681380         0.984456        -0.498640
 C         3.106845        -0.253809        -1.258786
 O         1.784640        -0.898876        -0.970832
 H        -0.153794         1.394534         0.597567
 H        -0.069969         0.782604        -0.921272
 H        -0.387868        -0.382828         0.413368
 H         2.441596         0.347011         2.093783
 H         1.713858        -1.374825         1.947502
 H         4.103203        -1.482792         1.725918
 H         3.357297        -2.232802         0.364954
 H         5.188421        -0.677206        -0.400695
 H         2.330314         1.814129        -0.973393
 H         3.318294        -0.341263        -2.295430
