19
Iteration:  1014
 C         0.235172         0.616627         0.346111
 C         1.602859         0.010560         0.074793
 C         2.151644        -0.732602         1.336848
 C         3.660340        -1.134278         1.105434
 C         4.121896        -0.328509        -0.082556
 O         3.968670         1.126197         0.077188
 C         2.686875         1.018514        -0.585893
 C         3.050316        -0.316698        -1.332837
 O         1.790203        -0.941054        -1.070433
 H         0.264069         1.160370         1.409936
 H         0.024846         1.439354        -0.366780
 H        -0.687959         0.039031         0.352637
 H         1.860786        -0.217345         2.241177
 H         1.463437        -1.601752         1.454374
 H         4.177427        -0.812521         2.030699
 H         3.747075        -2.199627         0.694236
 H         5.152284        -0.657386        -0.462535
 H         2.360268         1.962224        -1.108307
 H         3.405051        -0.451670        -2.374130
