19
Iteration:  4175
 C         0.175907         0.523499         0.267402
 C         1.652827         0.119671         0.144880
 C         2.122099        -0.623730         1.336926
 C         3.603107        -1.277360         0.993235
 C         4.109382        -0.426852        -0.168582
 O         3.985106         1.099807         0.182801
 C         2.733059         1.082527        -0.634001
 C         3.033219        -0.238282        -1.333591
 O         1.816187        -0.882787        -0.962324
 H         0.174670         1.239235         1.057088
 H        -0.252329         0.906210        -0.670722
 H        -0.511782        -0.236998         0.598328
 H         2.238477        -0.043475         2.204521
 H         1.427365        -1.490934         1.534320
 H         4.334312        -1.073549         1.746593
 H         3.661359        -2.381826         0.877145
 H         5.100364        -0.575093        -0.593939
 H         2.429430         2.031347        -0.974754
 H         3.439433        -0.528335        -2.253614
