19
Iteration:  1447
 C         0.186397         0.554141         0.227992
 C         1.578237         0.119441         0.131575
 C         2.102784        -0.718950         1.361662
 C         3.560069        -1.136557         1.016048
 C         4.178777        -0.395667        -0.183685
 O         4.019948         1.126751         0.096190
 C         2.704696         0.983959        -0.561500
 C         3.035792        -0.281479        -1.295889
 O         1.844117        -0.885425        -0.903756
 H         0.156706         1.298620         1.078525
 H        -0.028973         1.108020        -0.632530
 H        -0.440231        -0.346284         0.252045
 H         1.982362        -0.296989         2.290148
 H         1.464862        -1.544178         1.164216
 H         4.417004        -1.023348         1.747350
 H         3.457297        -2.178060         1.011302
 H         5.119906        -0.763149        -0.556144
 H         2.431234         2.001410        -1.111282
 H         3.471965        -0.383191        -2.345202
