19
Iteration:  3862charge 0 multiplicity 1
 C         0.180731         0.664790         0.191648
 C         1.584423         0.046572         0.126611
 C         2.346419        -0.612776         1.388367
 C         3.676690        -1.233268         0.984816
 C         4.189853        -0.414427        -0.149640
 O         3.878597         0.989677         0.255563
 C         2.661134         1.004239        -0.508181
 C         3.020458        -0.256635        -1.332441
 O         1.713048        -0.881939        -1.092982
 H        -0.110798         1.095134         1.125976
 H         0.071853         1.476602        -0.536522
 H        -0.444813        -0.202112        -0.063431
 H         2.488780         0.256214         2.171777
 H         1.675015        -1.383622         1.805787
 H         4.322376        -1.102273         1.977746
 H         3.645341        -2.317648         0.608578
 H         5.192081        -0.323397        -0.618742
 H         2.389597         2.014011        -0.798881
 H         3.397693        -0.396642        -2.359305
