19
Iteration:  2864
 C         0.204935         0.523675         0.150128
 C         1.642014         0.100009         0.191778
 C         2.158238        -0.668069         1.380088
 C         3.535065        -1.276102         0.944960
 C         4.145219        -0.316554        -0.198666
 O         4.051698         1.137032         0.155560
 C         2.736802         1.042871        -0.542133
 C         3.008830        -0.130301        -1.347418
 O         1.783634        -0.977348        -0.878139
 H         0.088136         1.291812         0.899896
 H        -0.154837         0.911689        -0.695349
 H        -0.319005        -0.356709         0.282430
 H         2.176969        -0.108061         2.283215
 H         1.392340        -1.499357         1.599471
 H         4.220443        -1.496797         1.839512
 H         3.451676        -2.258918         0.442432
 H         5.097762        -0.889451        -0.468990
 H         2.278825         1.989458        -0.815582
 H         3.250750        -0.209922        -2.417915
