19
Iteration:   650
 C         0.165590         0.476206         0.215613
 C         1.635857         0.127505         0.162751
 C         2.232629        -0.544194         1.391503
 C         3.593249        -1.189442         1.065477
 C         4.133829        -0.379901        -0.137848
 O         3.980120         1.094065         0.120359
 C         2.775532         0.998149        -0.588164
 C         3.080438        -0.330723        -1.282688
 O         1.671397        -0.875369        -1.046359
 H        -0.197208         1.068654         1.088580
 H        -0.055180         1.065282        -0.721560
 H        -0.430559        -0.474603         0.124891
 H         2.475816         0.153819         2.227331
 H         1.502691        -1.322565         1.776421
 H         4.425504        -1.376234         1.845062
 H         3.364518        -2.233378         0.631502
 H         5.240086        -0.554249        -0.373354
 H         2.405306         1.964167        -0.996201
 H         3.453212        -0.448609        -2.378622
