19
Iteration:  2823
 C         0.156044         0.534252         0.270777
 C         1.596668         0.041352         0.064415
 C         2.287767        -0.554397         1.317552
 C         3.694914        -1.232892         1.037843
 C         4.138141        -0.425318        -0.079542
 O         3.988595         1.061746         0.280334
 C         2.678607         0.960196        -0.528506
 C         2.978738        -0.258094        -1.378598
 O         1.728653        -0.871970        -1.146536
 H         0.163214         1.080342         1.239488
 H        -0.094475         1.472206        -0.472746
 H        -0.728429        -0.193257         0.314420
 H         2.474260         0.256241         2.008399
 H         1.602628        -1.178829         1.818082
 H         4.348172        -1.171058         1.833688
 H         3.612097        -2.294253         0.826509
 H         5.193545        -0.407887        -0.368211
 H         2.326690         1.893654        -1.033001
 H         3.270811        -0.053569        -2.429650
