19
Iteration:  2603charge 0 multiplicity 1
 C         0.223653         0.508948         0.212693
 C         1.637878         0.106803         0.135560
 C         2.257825        -0.659511         1.381017
 C         3.614568        -1.266223         0.947686
 C         4.162350        -0.351056        -0.166386
 O         3.946009         1.102013         0.177684
 C         2.681593         1.048127        -0.494923
 C         3.017265        -0.241591        -1.318843
 O         1.719971        -0.898223        -1.006832
 H        -0.044070         1.312894         0.922777
 H        -0.050320         1.040834        -0.787964
 H        -0.277775        -0.409078         0.327200
 H         2.516270         0.092515         2.284434
 H         1.560445        -1.444536         1.783685
 H         4.199102        -1.394458         1.855213
 H         3.518537        -2.253588         0.367165
 H         5.207179        -0.571802        -0.316313
 H         2.213851         1.991548        -0.839117
 H         3.373444        -0.141233        -2.363246
