19
Iteration:  2441charge 0 multiplicity 1
 C         0.166750         0.457208         0.314554
 C         1.598023        -0.035547         0.118318
 C         2.295018        -0.567634         1.376812
 C         3.638888        -1.230012         1.031948
 C         4.190148        -0.370995        -0.145374
 O         3.958645         1.073774         0.305507
 C         2.728381         1.008816        -0.563620
 C         3.031718        -0.261567        -1.375899
 O         1.658986        -0.785039        -1.200637
 H        -0.010862         1.154490         1.120923
 H        -0.290238         0.983726        -0.658535
 H        -0.439441        -0.459038         0.506534
 H         2.516730         0.452972         1.837879
 H         1.732252        -1.023010         2.125659
 H         4.308127        -1.284106         1.907827
 H         3.558773        -2.241933         0.477162
 H         5.257636        -0.513957        -0.324072
 H         2.296387         2.022541        -0.966643
 H         3.413737        -0.486416        -2.459738
