19
Iteration:  4054charge 0 multiplicity 1
 C         0.147489         0.551012         0.211065
 C         1.598633         0.012900         0.155576
 C         2.233876        -0.526317         1.396545
 C         3.621001        -1.166024         1.045313
 C         4.188624        -0.456997        -0.247726
 O         3.970459         1.020045         0.234103
 C         2.733548         0.952389        -0.483859
 C         3.002403        -0.182470        -1.399744
 O         1.770132        -0.864374        -1.097082
 H        -0.043168         0.974668         1.253083
 H        -0.238710         1.358261        -0.540751
 H        -0.460959        -0.352045         0.028093
 H         2.356544         0.323798         2.097977
 H         1.592072        -1.227620         2.073876
 H         4.235275        -1.232339         1.924379
 H         3.480585        -2.298807         0.830681
 H         5.244813        -0.775348        -0.507265
 H         2.241978         1.910492        -0.730014
 H         3.452766        -0.158834        -2.425240
