19
Iteration:  4309charge 0 multiplicity 1
 C         0.233393         0.649137         0.232190
 C         1.650557         0.024706         0.162779
 C         2.163107        -0.718544         1.386594
 C         3.585759        -1.157936         1.008856
 C         4.128874        -0.370589        -0.140715
 O         3.965771         1.064268         0.175978
 C         2.670739         1.008172        -0.487762
 C         3.065371        -0.315139        -1.370182
 O         1.762726        -0.875708        -1.063686
 H         0.319679         1.663665         0.663733
 H        -0.115545         0.701224        -0.810550
 H        -0.637933        -0.027851         0.552424
 H         2.283769         0.060682         2.211342
 H         1.463431        -1.450824         1.782489
 H         4.490382        -1.068143         1.729735
 H         3.734752        -2.153949         0.610299
 H         5.195598        -0.634378        -0.392062
 H         2.243708         1.954766        -0.881995
 H         3.406308        -0.274203        -2.433523
