19
Iteration:  2420
 C         0.159262         0.452969         0.275620
 C         1.634408         0.074457         0.130173
 C         2.253364        -0.575468         1.348976
 C         3.600247        -1.216973         1.006532
 C         4.137425        -0.379037        -0.196944
 O         3.958927         1.008445         0.178961
 C         2.694602         1.034932        -0.467984
 C         3.008962        -0.183651        -1.319853
 O         1.805369        -0.869181        -1.102790
 H         0.115220         1.245439         1.012604
 H        -0.350721         0.843357        -0.709924
 H        -0.485884        -0.383542         0.679132
 H         2.358990         0.120885         2.169448
 H         1.562235        -1.282229         1.695445
 H         4.298957        -1.106029         1.828898
 H         3.517749        -2.279198         0.746866
 H         5.132592        -0.733762        -0.452358
 H         2.388883         2.088949        -0.798154
 H         3.391411        -0.002135        -2.385103
