19
Iteration:   379charge 0 multiplicity 1
 C         0.258929         0.630997         0.076651
 C         1.593326        -0.003571         0.150873
 C         2.195046        -0.703154         1.395682
 C         3.676613        -1.070394         1.149345
 C         4.070298        -0.422353        -0.168093
 O         4.002359         1.046084         0.069593
 C         2.687217         0.975543        -0.470632
 C         3.002302        -0.226087        -1.320279
 O         1.765309        -0.912155        -1.033592
 H         0.145764         1.445969         0.964488
 H        -0.034753         1.072499        -0.808590
 H        -0.524388         0.007034         0.450799
 H         2.014816        -0.160205         2.308620
 H         1.517229        -1.614209         1.506915
 H         4.332900        -0.579510         1.897540
 H         3.741602        -2.176950         1.203875
 H         5.119900        -0.687063        -0.506530
 H         2.237165         1.994864        -0.655103
 H         3.379764        -0.393221        -2.378767
