19
Iteration:  1537
 C         0.180248         0.491034         0.166988
 C         1.622542         0.090493         0.145936
 C         2.211782        -0.545823         1.444505
 C         3.505844        -1.227529         0.906632
 C         4.135203        -0.358212        -0.144626
 O         4.010667         1.090996         0.118080
 C         2.694837         0.977409        -0.500006
 C         3.099187        -0.243272        -1.250541
 O         1.795255        -0.904013        -0.959796
 H        -0.129376         1.424302         0.605597
 H        -0.064406         0.782298        -0.873956
 H        -0.391869        -0.344280         0.445705
 H         2.365633         0.311072         2.014063
 H         1.724002        -1.332801         1.969318
 H         4.137459        -1.430765         1.724880
 H         3.294113        -2.206388         0.409131
 H         5.151020        -0.694081        -0.404349
 H         2.366023         1.886640        -1.019831
 H         3.276390        -0.366105        -2.296170
