19
Iteration:  4602
 C         0.229247         0.630560         0.241052
 C         1.616516        -0.034322         0.102922
 C         2.246368        -0.574707         1.454584
 C         3.604812        -1.220355         0.940370
 C         4.068594        -0.328176        -0.156845
 O         3.979460         1.037663         0.190049
 C         2.695041         1.010956        -0.525809
 C         3.025139        -0.271772        -1.298848
 O         1.756370        -0.925780        -1.079720
 H        -0.029840         0.990987         1.268180
 H         0.172528         1.335630        -0.613027
 H        -0.516716        -0.239519        -0.030595
 H         2.438666         0.355798         2.073145
 H         1.504957        -1.242940         2.015250
 H         4.354584        -0.951591         1.716290
 H         3.686950        -2.302405         0.831637
 H         5.112247        -0.713454        -0.557060
 H         2.184820         1.949549        -0.868719
 H         3.503521        -0.294727        -2.362918
