19
Iteration:  1703charge 0 multiplicity 1
 C         0.195344         0.466151         0.213697
 C         1.609270        -0.008480         0.117835
 C         2.257957        -0.530633         1.474544
 C         3.571662        -1.164618         1.026816
 C         4.125766        -0.415685        -0.085241
 O         3.953257         1.042323         0.166948
 C         2.790884         1.032202        -0.509127
 C         3.005744        -0.256057        -1.351699
 O         1.731863        -0.852350        -1.146374
 H         0.201567         1.418002         0.713670
 H        -0.349094         0.714699        -0.797826
 H        -0.462135        -0.285118         0.715293
 H         2.341452         0.390521         2.008503
 H         1.737648        -1.218028         2.118509
 H         4.412734        -1.213626         1.783871
 H         3.420537        -2.264626         0.610593
 H         5.160559        -0.641528        -0.554910
 H         2.311096         2.095232        -0.962889
 H         3.597329        -0.283615        -2.279842
