19
Iteration:  4121
 C         0.159606         0.584066         0.251160
 C         1.616341         0.041246         0.099542
 C         2.232059        -0.661429         1.318502
 C         3.597122        -1.214764         0.996777
 C         4.094251        -0.422402        -0.158074
 O         3.954890         1.039602         0.205877
 C         2.687886         1.047075        -0.565594
 C         3.055072        -0.193541        -1.303715
 O         1.823990        -0.903519        -1.011947
 H         0.280689         1.569446         0.686833
 H        -0.433327         0.882059        -0.675179
 H        -0.459484        -0.079389         0.907973
 H         2.416877         0.117809         2.015125
 H         1.678906        -1.454819         1.907972
 H         4.366105        -1.120457         1.741469
 H         3.477615        -2.276738         0.727781
 H         5.111139        -0.552238        -0.544705
 H         2.432299         2.003097        -0.905187
 H         3.374461        -0.205057        -2.300972
