19
Iteration:  1277
 C         0.116063         0.574882         0.274484
 C         1.600351         0.188763         0.083063
 C         2.196170        -0.649230         1.269530
 C         3.604050        -1.215107         0.952120
 C         4.160923        -0.348720        -0.135502
 O         3.957829         1.078194         0.122133
 C         2.694878         0.990521        -0.628544
 C         3.060421        -0.288147        -1.255560
 O         1.861133        -0.932748        -0.853264
 H         0.085740         1.172709         1.186373
 H        -0.235709         1.178874        -0.629402
 H        -0.310781        -0.377773         0.503241
 H         2.194603        -0.155509         2.288856
 H         1.371815        -1.429668         1.303394
 H         4.199756        -1.261206         1.864299
 H         3.464143        -2.235606         0.439902
 H         5.233005        -0.523967        -0.380487
 H         2.466272         2.017786        -1.030504
 H         3.253192        -0.516964        -2.232631
