19
Iteration:  4484
 C         0.204725         0.640639         0.278851
 C         1.660706         0.120673         0.095239
 C         2.117558        -0.742894         1.320629
 C         3.530356        -1.278882         0.997447
 C         4.143212        -0.371421        -0.173086
 O         3.956930         1.105300         0.134039
 C         2.693381         1.013093        -0.633143
 C         3.055107        -0.200789        -1.302636
 O         1.897218        -0.931851        -0.893363
 H         0.040333         1.583982         0.828610
 H        -0.231902         0.777822        -0.681103
 H        -0.286380        -0.123242         0.905376
 H         2.258903        -0.027417         2.228623
 H         1.416760        -1.558538         1.346807
 H         4.072983        -1.198008         2.041194
 H         3.642009        -2.325782         0.702077
 H         5.276377        -0.494536        -0.423540
 H         2.235257         1.934788        -1.033287
 H         3.070546        -0.280498        -2.436729
