19
Iteration:  3237
 C         0.196754         0.553523         0.139332
 C         1.604379         0.107841         0.225236
 C         2.167289        -0.756972         1.357760
 C         3.523820        -1.213929         0.872642
 C         4.140273        -0.350172        -0.186518
 O         4.024720         1.128068         0.150436
 C         2.783424         1.015144        -0.526775
 C         3.066763        -0.234436        -1.285631
 O         1.759112        -0.881126        -0.878458
 H        -0.090762         1.469177         0.810267
 H        -0.204001         1.022645        -0.785904
 H        -0.419880        -0.223928         0.545246
 H         2.184201        -0.272393         2.348665
 H         1.623568        -1.786163         1.494435
 H         4.147792        -1.244321         1.804983
 H         3.525549        -2.305636         0.571451
 H         5.160559        -0.475610        -0.686848
 H         2.355979         1.973612        -0.867469
 H         3.402682        -0.327335        -2.405561
