19
Iteration:  3498
 C         0.186270         0.526129         0.176416
 C         1.597802         0.051269         0.177328
 C         2.254792        -0.577286         1.375290
 C         3.536572        -1.213704         0.949152
 C         4.135027        -0.389841        -0.254892
 O         3.989502         1.053485         0.214932
 C         2.666477         0.977269        -0.445175
 C         3.031923        -0.231213        -1.333524
 O         1.820372        -0.867102        -1.030432
 H         0.052810         1.039075         1.217598
 H         0.050081         1.214638        -0.689205
 H        -0.490043        -0.307357         0.119946
 H         2.505721         0.247396         2.013025
 H         1.628322        -1.259640         2.023520
 H         4.183635        -1.214640         1.839947
 H         3.462121        -2.270039         0.662939
 H         5.230458        -0.620379        -0.541075
 H         2.254559         1.966257        -0.602383
 H         3.274517        -0.261670        -2.404987
