19
Iteration:  4326
 C         0.140290         0.714171         0.180114
 C         1.556183         0.052841         0.102549
 C         2.277628        -0.604199         1.356661
 C         3.722496        -1.215862         1.013258
 C         4.136569        -0.404071        -0.222779
 O         3.873221         0.972774         0.302034
 C         2.708149         0.987371        -0.567048
 C         3.010778        -0.192789        -1.303939
 O         1.821169        -0.983440        -1.046773
 H         0.267995         1.598309         0.800044
 H        -0.218788         1.139600        -0.782137
 H        -0.515994         0.101620         0.736201
 H         2.297960         0.023859         2.200891
 H         1.712846        -1.540474         1.661141
 H         4.300311        -0.905810         1.816677
 H         3.580312        -2.339632         0.965390
 H         5.124268        -0.471949        -0.660308
 H         2.490513         2.019589        -0.859706
 H         3.239133        -0.285362        -2.339933
