19
Iteration:  2954charge 0 multiplicity 1
 C         0.157359         0.573994         0.290516
 C         1.599643         0.055211         0.192927
 C         2.110213        -0.679004         1.434259
 C         3.567180        -1.274547         0.955572
 C         4.225142        -0.328532        -0.073069
 O         4.001632         1.166104         0.076354
 C         2.756992         0.992230        -0.543876
 C         3.002601        -0.275045        -1.319836
 O         1.803862        -0.909052        -1.098620
 H         0.287761         1.201437         1.107490
 H        -0.177751         1.164200        -0.535757
 H        -0.508367        -0.223968         0.404468
 H         2.339122        -0.017923         2.284817
 H         1.364650        -1.403744         1.683244
 H         4.211948        -1.464771         1.794342
 H         3.444107        -2.204813         0.385200
 H         5.281220        -0.403757        -0.369298
 H         2.470284         2.003942        -0.942357
 H         3.386392        -0.305486        -2.369022
