19
Iteration:   646charge 0 multiplicity 1
 C         0.156432         0.458641         0.186692
 C         1.645780         0.170655         0.164751
 C         2.203568        -0.557950         1.414442
 C         3.597824        -1.200989         1.029312
 C         4.126348        -0.355783        -0.144093
 O         4.013828         1.084633         0.126840
 C         2.802329         1.001187        -0.599967
 C         3.050346        -0.310226        -1.277921
 O         1.688221        -0.885059        -1.009685
 H        -0.251968         0.935654         1.053433
 H        -0.151199         0.970078        -0.811814
 H        -0.433503        -0.508438         0.234100
 H         2.420583         0.134943         2.292529
 H         1.601449        -1.331548         1.830417
 H         4.345517        -1.346575         1.786412
 H         3.279938        -2.158427         0.505178
 H         5.146819        -0.571598        -0.320988
 H         2.507789         1.933533        -1.099026
 H         3.327730        -0.483019        -2.294580
