19
Iteration:  2354charge 0 multiplicity 1
 C         0.221055         0.573293         0.268719
 C         1.592308        -0.045538         0.152254
 C         2.247228        -0.701785         1.378156
 C         3.646665        -1.201290         0.985437
 C         4.108263        -0.372619        -0.204123
 O         3.893429         1.071274         0.230132
 C         2.731320         1.029270        -0.537818
 C         3.066400        -0.240808        -1.342982
 O         1.747722        -0.854427        -1.071835
 H         0.306031         1.204116         1.150645
 H         0.062344         1.121589        -0.777898
 H        -0.733661         0.027719         0.412261
 H         2.421376         0.165171         2.010098
 H         1.619359        -1.379850         1.863175
 H         4.322864        -1.029277         1.796600
 H         3.784232        -2.213597         0.848021
 H         5.157228        -0.257009        -0.438788
 H         2.278813         2.011626        -0.980710
 H         3.176449        -0.383786        -2.484091
