19
Iteration:  3332
 C         0.215876         0.455293         0.150267
 C         1.597003         0.040857         0.237819
 C         2.195690        -0.649901         1.419284
 C         3.469916        -1.288895         0.939316
 C         4.182778        -0.309902        -0.182242
 O         4.078593         1.148877         0.095958
 C         2.736857         1.059117        -0.509845
 C         2.977447        -0.217619        -1.240930
 O         1.771961        -0.852554        -1.036726
 H        -0.060192         1.200304         0.966588
 H         0.074469         1.181619        -0.629610
 H        -0.431348        -0.433895         0.236134
 H         2.498613        -0.073916         2.295704
 H         1.412793        -1.363727         1.818556
 H         4.010956        -1.525468         1.891736
 H         3.460149        -2.306951         0.533311
 H         5.218787        -0.722355        -0.495095
 H         2.315636         2.016508        -0.769955
 H         3.403328        -0.544024        -2.234317
