19
Iteration:  2986charge 0 multiplicity 1
 C         0.202205         0.539336         0.133108
 C         1.627028         0.097735         0.167080
 C         2.150178        -0.626509         1.409938
 C         3.622946        -1.237196         0.915547
 C         4.139270        -0.406897        -0.250709
 O         3.967481         1.060510         0.186086
 C         2.732752         1.029957        -0.464753
 C         2.971379        -0.206503        -1.298113
 O         1.805987        -0.903255        -0.943752
 H         0.104860         1.054367         1.093495
 H         0.112410         1.246753        -0.657120
 H        -0.486606        -0.276987         0.102478
 H         2.349892        -0.008929         2.294444
 H         1.429990        -1.401896         1.755365
 H         4.320780        -1.022760         1.756187
 H         3.688500        -2.348219         0.768960
 H         5.154793        -0.619290        -0.668250
 H         2.351578         1.962159        -0.960497
 H         3.264239        -0.152812        -2.376485
