19
Iteration:  2060charge 0 multiplicity 1
 C         0.153802         0.561123         0.270158
 C         1.630368         0.060915         0.140517
 C         2.277620        -0.687242         1.339855
 C         3.748700        -1.102715         1.108788
 C         4.133450        -0.449911        -0.166433
 O         3.864029         1.056049         0.168129
 C         2.659599         0.946519        -0.538017
 C         3.027026        -0.299091        -1.290809
 O         1.752723        -0.800936        -1.137108
 H         0.196492         1.387040         0.938644
 H        -0.207941         1.134766        -0.744232
 H        -0.451541        -0.216679         0.673510
 H         2.070749         0.148688         1.990288
 H         1.599382        -1.520804         1.686062
 H         4.518109        -0.938661         1.943116
 H         3.753167        -2.236539         0.827949
 H         5.159226        -0.608897        -0.652709
 H         2.512073         1.995744        -0.808000
 H         3.426136        -0.355167        -2.394207
