19
Iteration:  4098charge 0 multiplicity 1
 C         0.232715         0.533517         0.262239
 C         1.684943         0.129929         0.167825
 C         2.146266        -0.594002         1.386158
 C         3.486466        -1.274708         0.932864
 C         4.196826        -0.325597        -0.259020
 O         3.929449         1.110369         0.182095
 C         2.733148         1.024823        -0.523763
 C         3.066092        -0.302301        -1.345488
 O         1.812280        -0.922220        -0.909786
 H        -0.110056         1.458472         0.733861
 H        -0.005066         0.823507        -0.843265
 H        -0.320538        -0.391724         0.449011
 H         2.197333        -0.121997         2.336676
 H         1.393881        -1.474490         1.614400
 H         4.268960        -1.518214         1.593449
 H         3.132672        -2.224414         0.396049
 H         5.296532        -0.305122        -0.479868
 H         2.554819         2.037148        -0.845995
 H         3.185753        -0.361894        -2.425437
