19
Iteration:   827charge 0 multiplicity 1
 C         0.198121         0.669241         0.272117
 C         1.642446         0.063821         0.185076
 C         2.093640        -0.758653         1.336325
 C         3.617845        -1.210585         1.018613
 C         4.105718        -0.362044        -0.183193
 O         4.002598         1.169847         0.072774
 C         2.687353         1.064963        -0.572693
 C         3.075339        -0.269918        -1.278756
 O         1.817374        -1.005028        -0.973598
 H        -0.004837         1.046461         1.303177
 H         0.022131         1.340160        -0.454723
 H        -0.427918        -0.144761         0.090340
 H         1.977759        -0.224351         2.234107
 H         1.531965        -1.700695         1.533302
 H         4.279574        -0.876200         1.776161
 H         3.525911        -2.184527         0.710849
 H         5.161741        -0.687065        -0.428913
 H         2.342049         1.959083        -1.042300
 H         3.445280        -0.298025        -2.311847
