19
Iteration:  4061charge 0 multiplicity 1
 C         0.112245         0.553444         0.207859
 C         1.607045         0.062266         0.160040
 C         2.265714        -0.567904         1.417097
 C         3.612198        -1.243703         1.005894
 C         4.176019        -0.420322        -0.192880
 O         3.973028         0.999950         0.125866
 C         2.671101         1.004451        -0.431501
 C         3.085183        -0.196709        -1.305674
 O         1.781357        -0.875421        -1.092495
 H        -0.125605         0.982141         1.177660
 H         0.007925         1.183085        -0.644983
 H        -0.646022        -0.204040         0.046705
 H         2.365044         0.459486         1.877348
 H         1.616700        -1.238251         1.946916
 H         4.298395        -1.241453         1.919580
 H         3.281543        -2.279302         0.844379
 H         5.169968        -0.587027        -0.579817
 H         2.225768         2.015086        -0.725793
 H         3.401683        -0.156955        -2.400491
