19
Iteration:  4298charge 0 multiplicity 1
 C         0.300888         0.553979         0.187169
 C         1.633965         0.013623         0.148596
 C         2.123908        -0.692875         1.370257
 C         3.566292        -1.226388         0.985003
 C         4.128012        -0.346408        -0.130401
 O         3.983298         1.120769         0.055434
 C         2.725935         0.968089        -0.502195
 C         3.054277        -0.231871        -1.237833
 O         1.748467        -0.836961        -1.031007
 H         0.269787         1.497692         0.776944
 H        -0.048673         0.827573        -0.808443
 H        -0.296644        -0.076810         0.912494
 H         2.160514         0.034959         2.240507
 H         1.485030        -1.550003         1.612914
 H         4.086568        -1.191339         2.010160
 H         3.410188        -2.252013         0.690161
 H         5.187925        -0.586371        -0.408786
 H         2.280941         1.951261        -0.664166
 H         3.373867        -0.422839        -2.278807
