19
Iteration:  2789
 C         0.199954         0.507843         0.311134
 C         1.633577         0.120908         0.074005
 C         2.173455        -0.621328         1.392356
 C         3.561452        -1.239084         1.025917
 C         4.120703        -0.346817        -0.148046
 O         3.973131         1.032473         0.151486
 C         2.698481         1.010496        -0.560826
 C         3.048516        -0.218924        -1.387911
 O         1.850357        -0.868211        -1.010240
 H         0.227721         1.091842         1.256606
 H        -0.376984         1.256451        -0.464085
 H        -0.468348        -0.375310         0.338225
 H         2.162243        -0.001042         2.260642
 H         1.397242        -1.394976         1.451190
 H         4.300848        -1.265438         1.799350
 H         3.414923        -2.240311         0.623348
 H         5.209825        -0.731363        -0.266842
 H         2.401209         2.007303        -0.954405
 H         3.342400        -0.302088        -2.457312
