19
Iteration:  4929charge 0 multiplicity 1
 C         0.241410         0.547764         0.259976
 C         1.631050         0.048252         0.076141
 C         2.171834        -0.656656         1.365588
 C         3.546636        -1.184911         0.944985
 C         4.122303        -0.351923        -0.179266
 O         3.976413         1.062615         0.157997
 C         2.674896         1.047886        -0.532764
 C         3.030861        -0.236037        -1.314685
 O         1.825540        -0.948983        -0.988747
 H         0.373613         1.361874         0.971333
 H        -0.273990         0.887952        -0.577553
 H        -0.289153        -0.158857         0.880336
 H         2.258436         0.038822         2.231150
 H         1.348379        -1.330358         1.594983
 H         4.147621        -1.055919         1.878946
 H         3.733017        -2.264285         0.696485
 H         5.138622        -0.490514        -0.538876
 H         2.315778         2.142287        -0.591110
 H         3.404914        -0.297565        -2.370943
