19
Iteration:  2180
 C         0.167471         0.474856         0.342770
 C         1.585580         0.093099         0.103772
 C         2.168480        -0.606591         1.335633
 C         3.556931        -1.188857         0.940684
 C         4.199222        -0.376092        -0.229658
 O         4.008691         1.016200         0.165209
 C         2.663689         1.036666        -0.543166
 C         3.022229        -0.216612        -1.348862
 O         1.845871        -0.894950        -0.984589
 H         0.216934         1.297033         0.945483
 H        -0.254380         0.984616        -0.570503
 H        -0.418075        -0.290062         0.732336
 H         2.296940         0.061486         2.172733
 H         1.558506        -1.415106         1.753694
 H         4.173664        -0.828494         1.795271
 H         3.496694        -2.289542         1.016543
 H         5.292646        -0.547824        -0.441655
 H         2.171290         2.050067        -0.767950
 H         3.447944        -0.334606        -2.417632
