19
Iteration:  2842
 C         0.198860         0.564146         0.247138
 C         1.595658         0.058468         0.114746
 C         2.227986        -0.623893         1.376791
 C         3.585347        -1.194870         0.951769
 C         4.153764        -0.363060        -0.238534
 O         3.885165         0.988663         0.182997
 C         2.707795         1.053875        -0.507050
 C         3.084855        -0.220079        -1.296072
 O         1.816518        -0.880232        -0.994517
 H        -0.063372         1.199500         1.070607
 H        -0.135717         1.158876        -0.543627
 H        -0.388409        -0.294610         0.125776
 H         2.280820         0.057631         2.188395
 H         1.468188        -1.370091         1.799137
 H         4.313534        -1.230274         1.829226
 H         3.534583        -2.280250         0.756535
 H         5.251820        -0.632113        -0.573850
 H         2.487837         2.088048        -0.804281
 H         3.387647        -0.498188        -2.321726
