19
Iteration:  1701
 C         0.185691         0.449454         0.194051
 C         1.604093         0.002855         0.134648
 C         2.287482        -0.519062         1.464609
 C         3.577650        -1.183904         1.045016
 C         4.138508        -0.398271        -0.086839
 O         3.956269         1.022688         0.178823
 C         2.771032         1.018657        -0.522719
 C         2.988715        -0.240172        -1.342974
 O         1.725885        -0.842244        -1.149280
 H         0.226198         1.410278         0.667397
 H        -0.303758         0.716548        -0.850208
 H        -0.435302        -0.220398         0.717977
 H         2.322636         0.365697         1.990236
 H         1.752034        -1.258016         2.104162
 H         4.449177        -1.156564         1.700840
 H         3.386307        -2.217633         0.636830
 H         5.129984        -0.636649        -0.518112
 H         2.378252         2.141417        -0.959195
 H         3.554417        -0.361049        -2.265024
