19
Iteration:  3045charge 0 multiplicity 1
 C         0.209963         0.506577         0.381321
 C         1.639301         0.066860         0.098774
 C         2.193526        -0.641774         1.408386
 C         3.478672        -1.302428         0.967254
 C         4.091567        -0.278229        -0.045791
 O         4.007921         1.118514         0.076721
 C         2.813291         1.014401        -0.547822
 C         3.065857        -0.238136        -1.377628
 O         1.794184        -0.878504        -1.059684
 H         0.033090         1.326355         1.039100
 H        -0.399550         0.842421        -0.534947
 H        -0.505698        -0.365377         0.451750
 H         2.266948         0.165422         2.191000
 H         1.596124        -1.477256         1.661289
 H         4.142517        -1.512633         1.773733
 H         3.227589        -2.170406         0.371472
 H         5.137161        -0.535415        -0.146081
 H         2.336450         1.948203        -0.977138
 H         3.448091        -0.355969        -2.391293
