19
Iteration:  4865
 C         0.180347         0.485741         0.261290
 C         1.667514         0.096541         0.156791
 C         2.124409        -0.603428         1.347473
 C         3.537170        -1.201746         0.911525
 C         4.183762        -0.405971        -0.210295
 O         3.961590         1.123220         0.131984
 C         2.740564         1.020231        -0.514563
 C         3.030186        -0.197482        -1.262520
 O         1.847787        -0.942474        -0.978143
 H         0.175290         1.547681         0.653421
 H        -0.437269         0.405532        -0.638591
 H        -0.449884        -0.051301         1.039855
 H         2.337704         0.028934         2.249644
 H         1.422391        -1.378587         1.530657
 H         4.281410        -1.269765         1.797539
 H         3.336471        -2.285667         0.625994
 H         5.144536        -0.885013        -0.422159
 H         2.349043         1.931566        -0.956562
 H         3.343938        -0.031100        -2.291278
