19
Iteration:   212
 C         0.229717         0.602146         0.196450
 C         1.602209        -0.028429         0.089077
 C         2.265118        -0.539404         1.415694
 C         3.665371        -1.169831         1.125066
 C         4.142142        -0.315556        -0.030571
 O         3.898504         1.079262         0.142283
 C         2.667866         0.894091        -0.536657
 C         3.042585        -0.382418        -1.258999
 O         1.704791        -0.895272        -1.235621
 H         0.490791         1.320744         0.854275
 H        -0.006308         1.140348        -0.790774
 H        -0.556875         0.011801         0.707542
 H         2.432993         0.406608         1.926054
 H         1.543716        -1.066150         2.034628
 H         4.328209        -1.217864         2.039737
 H         3.631805        -2.055573         0.583914
 H         5.272145        -0.401345        -0.315362
 H         2.365504         1.855093        -0.889120
 H         3.472862        -0.444638        -2.337111
