19
Iteration:  2788charge 0 multiplicity 1
 C         0.193110         0.511505         0.308741
 C         1.632478         0.123771         0.072953
 C         2.178101        -0.620673         1.394083
 C         3.551313        -1.245090         1.024029
 C         4.125419        -0.343564        -0.154440
 O         3.971940         1.037356         0.151007
 C         2.703968         1.012510        -0.559060
 C         3.039691        -0.213129        -1.385073
 O         1.857573        -0.875064        -1.004027
 H         0.209229         1.082853         1.268758
 H        -0.342112         1.219917        -0.471014
 H        -0.445828        -0.363903         0.352923
 H         2.162634        -0.019915         2.254944
 H         1.388961        -1.421656         1.410941
 H         4.312991        -1.242451         1.821515
 H         3.402958        -2.244755         0.610493
 H         5.217985        -0.771507        -0.262858
 H         2.436914         1.998503        -0.974380
 H         3.315384        -0.306583        -2.451335
