19
Iteration:   754
 C         0.146961         0.456486         0.201753
 C         1.571445         0.026706         0.106853
 C         2.197035        -0.476719         1.414704
 C         3.540284        -1.175153         0.980092
 C         4.151707        -0.424992        -0.243674
 O         4.029555         0.931204         0.153941
 C         2.728103         1.043272        -0.454351
 C         3.066736        -0.122952        -1.329147
 O         1.804661        -0.883329        -0.973832
 H         0.021021         1.530673         0.569611
 H        -0.227741         0.294744        -0.871702
 H        -0.429365        -0.257347         0.829283
 H         2.409545         0.292063         2.188806
 H         1.549672        -1.222192         1.929643
 H         4.381737        -0.999290         1.736889
 H         3.366275        -2.210270         0.658634
 H         5.134376        -0.742630        -0.548869
 H         2.297131         1.997931        -0.804634
 H         3.341700        -0.144300        -2.355593
