19
Iteration:  4768
 C         0.128377         0.479998         0.338284
 C         1.677677         0.154164         0.184300
 C         2.105538        -0.624244         1.299323
 C         3.525589        -1.099964         0.984242
 C         4.113141        -0.397299        -0.190817
 O         4.107377         1.073362         0.040432
 C         2.687575         1.007058        -0.503978
 C         3.027124        -0.268082        -1.304216
 O         1.851519        -0.931343        -0.982615
 H        -0.327650         0.693649         1.376743
 H        -0.012077         1.307236        -0.388021
 H        -0.459169        -0.389602        -0.067158
 H         2.197902         0.092538         2.188295
 H         1.454462        -1.416563         1.551603
 H         4.162225        -1.284040         1.868820
 H         3.512742        -2.046673         0.557347
 H         5.219912        -0.518207        -0.159380
 H         2.395659         1.907191        -0.910924
 H         3.356743        -0.406621        -2.303952
