19
Iteration:   405
 C         0.189924         0.650277         0.235151
 C         1.556992         0.085622         0.096197
 C         2.136870        -0.634932         1.296032
 C         3.696974        -1.053006         1.026524
 C         4.144582        -0.403023        -0.234103
 O         3.891300         0.959344         0.270255
 C         2.762697         0.994267        -0.602798
 C         3.085836        -0.264172        -1.345544
 O         1.807605        -0.998402        -0.953184
 H         0.103476         1.393295         1.045689
 H        -0.105477         1.135747        -0.764522
 H        -0.627117        -0.086133         0.610123
 H         2.037383         0.026079         2.230628
 H         1.399637        -1.386941         1.454876
 H         4.297877        -0.519282         1.778367
 H         3.807918        -2.247965         1.141957
 H         5.148200        -0.506897        -0.514364
 H         2.523233         1.950318        -1.046346
 H         3.362211        -0.415470        -2.338314
