19
Iteration:  1450charge 0 multiplicity 1
 C         0.185523         0.556616         0.238801
 C         1.594262         0.139224         0.148680
 C         2.100935        -0.737661         1.356386
 C         3.565766        -1.131875         1.017798
 C         4.171913        -0.383930        -0.159328
 O         4.012690         1.128215         0.061621
 C         2.717489         0.993456        -0.562366
 C         3.038320        -0.277745        -1.289115
 O         1.850858        -0.886635        -0.925672
 H         0.204423         1.233530         1.120485
 H        -0.046216         1.073345        -0.746699
 H        -0.480281        -0.284175         0.310561
 H         1.885146        -0.266045         2.368754
 H         1.436154        -1.626179         1.257045
 H         4.250541        -1.070675         1.854567
 H         3.508674        -2.301961         0.928005
 H         5.125219        -0.789386        -0.540029
 H         2.414270         1.858571        -1.086421
 H         3.415219        -0.353793        -2.322469
