19
Iteration:  1753charge 0 multiplicity 1
 C         0.193147         0.612139         0.248507
 C         1.609382         0.105077         0.155935
 C         2.199959        -0.700078         1.335766
 C         3.581675        -1.187332         0.995906
 C         4.160925        -0.306361        -0.170603
 O         3.934192         1.141079         0.207162
 C         2.716713         0.990439        -0.616615
 C         3.063039        -0.357949        -1.342399
 O         1.799413        -0.927520        -0.944394
 H         0.044298         1.155231         1.207443
 H        -0.082228         1.333501        -0.544150
 H        -0.497321        -0.210412         0.118399
 H         2.134305        -0.004034         2.236476
 H         1.457194        -1.532468         1.572950
 H         4.449234        -1.194211         1.619878
 H         3.519202        -2.202108         0.664906
 H         5.116695        -0.564482        -0.520760
 H         2.431065         1.835499        -1.153995
 H         3.408387        -0.672863        -2.350207
