19
Iteration:  2926charge 0 multiplicity 1
 C         0.237380         0.524717         0.319535
 C         1.629719         0.095214         0.072454
 C         2.238408        -0.550357         1.253359
 C         3.601340        -1.165638         0.987666
 C         4.100365        -0.429248        -0.119026
 O         3.881759         0.967977         0.247599
 C         2.669095         1.045758        -0.559886
 C         3.038061        -0.243849        -1.350827
 O         1.842518        -0.898060        -1.054651
 H         0.351087         1.379441         1.176852
 H        -0.314138         0.944997        -0.654400
 H        -0.481230        -0.220462         0.938744
 H         2.433135         0.170728         2.089909
 H         1.409217        -1.320097         1.428704
 H         4.252318        -1.033417         1.931750
 H         3.530830        -2.209678         0.624550
 H         5.056502        -0.524853        -0.609626
 H         2.486378         2.124594        -0.650887
 H         3.529600        -0.525331        -2.277965
