19
Iteration:  3738
 C         0.164216         0.670626         0.225296
 C         1.603132         0.033717         0.146223
 C         2.145054        -0.650262         1.400589
 C         3.574693        -1.280173         0.919248
 C         4.114604        -0.301960        -0.245061
 O         3.969690         1.019913         0.227327
 C         2.729925         1.018465        -0.466519
 C         3.025204        -0.201170        -1.379480
 O         1.881375        -0.937799        -0.984407
 H         0.223148         1.455308         1.035657
 H        -0.163852         1.092453        -0.722444
 H        -0.522148        -0.075828         0.545960
 H         2.234793        -0.019616         2.294293
 H         1.436198        -1.528769         1.569699
 H         4.377785        -1.034669         1.684852
 H         3.639738        -2.326026         0.474288
 H         5.137076        -0.684547        -0.545981
 H         2.290739         1.974145        -0.752578
 H         3.464916        -0.410833        -2.343876
