19
Iteration:   561charge 0 multiplicity 1
 C         0.204947         0.703963         0.330225
 C         1.613515         0.157045         0.086078
 C         2.176018        -0.703809         1.311970
 C         3.663633        -1.144758         1.045768
 C         4.162014        -0.339317        -0.083770
 O         3.871460         1.061645         0.174008
 C         2.642832         0.979752        -0.723527
 C         3.100054        -0.330651        -1.283751
 O         1.834395        -1.008081        -1.013090
 H         0.411431         1.502386         0.952262
 H        -0.309928         1.276384        -0.527303
 H        -0.432232        -0.132841         0.688911
 H         2.053493        -0.060789         2.217130
 H         1.488057        -1.554189         1.367880
 H         4.117227        -1.064069         2.068629
 H         3.751379        -2.271759         0.817286
 H         5.222196        -0.568288        -0.363668
 H         2.252110         1.852044        -1.293920
 H         3.412721        -0.477090        -2.371114
