19
Iteration:  4644
 C         0.146979         0.515935         0.281592
 C         1.578541         0.145312         0.158400
 C         2.172134        -0.680120         1.344210
 C         3.569183        -1.178833         0.988382
 C         4.110646        -0.435496        -0.182649
 O         4.022489         1.085003         0.155048
 C         2.757374         1.094479        -0.584108
 C         3.110069        -0.278850        -1.275003
 O         1.739139        -0.905704        -1.036847
 H         0.119098         1.419187         0.942735
 H        -0.282708         0.894238        -0.694231
 H        -0.437531        -0.350887         0.815892
 H         2.376267        -0.077942         2.205154
 H         1.469610        -1.529534         1.644396
 H         4.283524        -0.793940         1.720871
 H         3.733512        -2.280677         0.805218
 H         5.163778        -0.681625        -0.385811
 H         2.649079         2.139830        -1.028925
 H         3.413659        -0.566846        -2.361098
