19
Iteration:  1915
 C         0.189239         0.616803         0.179834
 C         1.568356         0.027068         0.202925
 C         2.179355        -0.757465         1.352967
 C         3.654602        -1.214210         1.044298
 C         4.239485        -0.317956        -0.091961
 O         4.000316         1.110982         0.038953
 C         2.714438         1.039298        -0.508624
 C         3.013703        -0.281464        -1.284197
 O         1.711530        -0.851940        -1.010329
 H         0.005292         1.242126         1.077832
 H        -0.090522         1.091472        -0.734958
 H        -0.341498        -0.347428         0.122884
 H         2.158485        -0.197462         2.311417
 H         1.533497        -1.554769         1.539171
 H         4.359578        -1.203141         1.933790
 H         3.588438        -2.196942         0.588070
 H         5.155665        -0.760052        -0.425398
 H         2.281198         1.955011        -0.926664
 H         3.266918        -0.284488        -2.359267
