19
Iteration:  2718charge 0 multiplicity 1
 C         0.249575         0.597524         0.219649
 C         1.623782        -0.047698         0.080034
 C         2.271897        -0.561054         1.404395
 C         3.592062        -1.244871         0.941142
 C         4.022828        -0.375874        -0.205407
 O         3.927047         1.020573         0.265581
 C         2.656257         1.035854        -0.467727
 C         3.045987        -0.234680        -1.326902
 O         1.830705        -0.900632        -1.087094
 H         0.262292         1.421806         0.939312
 H        -0.242983         0.906978        -0.585226
 H        -0.372037        -0.192274         0.711738
 H         2.601656         0.363126         1.979370
 H         1.550078        -1.255505         1.948815
 H         4.317633        -0.912873         1.802514
 H         3.607666        -2.355006         0.750698
 H         5.062185        -0.418925        -0.634462
 H         2.279521         2.009746        -0.807002
 H         3.275737        -0.295476        -2.377989
