19
Iteration:  3491charge 0 multiplicity 1
 C         0.177907         0.522476         0.169941
 C         1.636098        -0.012627         0.172859
 C         2.252564        -0.538116         1.392455
 C         3.623488        -1.234317         0.956935
 C         4.154814        -0.422340        -0.222515
 O         3.959609         1.053131         0.225907
 C         2.668710         0.967852        -0.455314
 C         3.016209        -0.195718        -1.342102
 O         1.750565        -0.843964        -1.036372
 H        -0.087410         1.255171         0.875887
 H         0.111545         1.286264        -0.628880
 H        -0.507311        -0.327157         0.047719
 H         2.538221         0.315938         2.036878
 H         1.719207        -1.251971         1.932914
 H         4.230613        -1.230325         1.842185
 H         3.503101        -2.235822         0.603427
 H         5.094007        -0.710901        -0.560545
 H         2.264485         1.938744        -0.590430
 H         3.427311        -0.207640        -2.329385
