19
Iteration:   519charge 0 multiplicity 1
 C         0.261749         0.603371         0.223709
 C         1.611538        -0.006767         0.147917
 C         2.119743        -0.726840         1.389071
 C         3.589106        -1.135824         1.179434
 C         4.133807        -0.314626        -0.109064
 O         4.045842         1.094643        -0.021504
 C         2.650808         0.971798        -0.552768
 C         3.024720        -0.230375        -1.281383
 O         1.761012        -0.936577        -1.069724
 H         0.162049         1.298828         1.119354
 H         0.031679         1.271237        -0.646183
 H        -0.514403        -0.164280         0.244166
 H         2.124286        -0.175025         2.293869
 H         1.436774        -1.611560         1.557590
 H         4.347726        -0.818089         1.934356
 H         3.700531        -2.188968         0.993262
 H         5.236159        -0.593233        -0.303942
 H         2.397271         1.940163        -1.029978
 H         3.485306        -0.191791        -2.344716
