19
Iteration:  1490
 C         0.237410         0.587413         0.238765
 C         1.608977        -0.030175         0.112571
 C         2.171176        -0.588391         1.353123
 C         3.604371        -1.136932         1.060287
 C         4.152727        -0.411281        -0.165350
 O         3.909180         1.092385         0.186708
 C         2.715350         0.948264        -0.555556
 C         3.066431        -0.298981        -1.274579
 O         1.778386        -0.889371        -1.097868
 H         0.415995         1.528098         0.835875
 H        -0.235562         1.109885        -0.517502
 H        -0.468013        -0.080580         0.802706
 H         2.296871         0.166628         2.097972
 H         1.593716        -1.453477         1.668295
 H         4.264896        -1.141193         2.029038
 H         3.618093        -2.129041         0.718554
 H         5.178230        -0.497823        -0.467853
 H         2.267600         1.915518        -1.124133
 H         3.403231        -0.281971        -2.370696
