19
Iteration:  4988
 C         0.188294         0.493792         0.231897
 C         1.620266         0.058596         0.136912
 C         2.305965        -0.489612         1.372559
 C         3.630702        -1.167805         1.021149
 C         4.117673        -0.427461        -0.275589
 O         3.936905         1.020020         0.301788
 C         2.735261         1.000022        -0.550530
 C         3.003839        -0.241870        -1.349581
 O         1.741703        -0.914120        -1.036987
 H        -0.284698         0.694782         1.223332
 H        -0.002073         1.500579        -0.341426
 H        -0.493739        -0.113692        -0.387017
 H         2.520039         0.368008         2.087323
 H         1.694400        -1.258190         1.821104
 H         4.392267        -1.107933         1.884961
 H         3.548355        -2.265626         0.757177
 H         5.078402        -0.630412        -0.792296
 H         2.296559         1.908681        -0.807023
 H         3.184865        -0.274493        -2.392950
