19
Iteration:  3600
 C         0.194289         0.613359         0.199970
 C         1.600876         0.024011         0.155943
 C         2.226910        -0.713546         1.371290
 C         3.559703        -1.238562         0.933685
 C         4.105826        -0.327760        -0.255928
 O         4.063808         1.053830         0.251380
 C         2.676124         1.067301        -0.503644
 C         2.954858        -0.176103        -1.315483
 O         1.848323        -0.940918        -0.954473
 H         0.197179         1.578159         0.796921
 H        -0.072471         0.850548        -0.921817
 H        -0.577909        -0.127469         0.618167
 H         2.126485         0.039607         2.191465
 H         1.598230        -1.583406         1.485689
 H         4.246398        -1.310572         1.773300
 H         3.386168        -2.167840         0.432392
 H         5.162349        -0.608596        -0.526626
 H         2.338389         2.034905        -0.906774
 H         3.199951        -0.269468        -2.387449
