19
Iteration:  3808
 C         0.126269         0.475416         0.283523
 C         1.590914         0.140727         0.114984
 C         2.106699        -0.605128         1.335476
 C         3.522768        -1.259980         0.904673
 C         4.119460        -0.399735        -0.185704
 O         4.079998         1.065277         0.154404
 C         2.753811         1.061586        -0.502495
 C         3.068853        -0.226932        -1.319446
 O         1.876376        -0.893970        -0.925011
 H         0.117211         1.279617         1.004013
 H        -0.377525         0.810083        -0.636423
 H        -0.463461        -0.347469         0.729806
 H         2.095313         0.064496         2.300485
 H         1.353572        -1.399189         1.374225
 H         4.211474        -1.268191         1.796526
 H         3.314026        -2.183451         0.363699
 H         5.144018        -0.548931        -0.563821
 H         2.523275         2.056024        -0.886075
 H         3.339810        -0.206364        -2.393850
