19
Iteration:  4139
 C         0.186560         0.570947         0.287840
 C         1.538321        -0.061291         0.134420
 C         2.203470        -0.581627         1.377449
 C         3.705957        -1.246680         1.037230
 C         4.184875        -0.383378        -0.142099
 O         3.998828         1.084881         0.213316
 C         2.738548         0.997356        -0.462957
 C         3.011614        -0.217134        -1.344017
 O         1.708372        -0.893042        -1.223667
 H         0.321750         1.598009         0.709530
 H        -0.196864         0.847104        -0.680593
 H        -0.431188         0.021266         0.948788
 H         2.248013         0.364363         2.010571
 H         1.392326        -1.166770         1.863914
 H         4.125212        -0.907124         1.985098
 H         3.657545        -2.376627         0.806269
 H         5.187707        -0.623088        -0.530415
 H         2.226717         1.971374        -0.843632
 H         3.338430        -0.513707        -2.436098
