19
Iteration:  4745
 C         0.152661         0.505741         0.206074
 C         1.669089         0.017419         0.131322
 C         2.143214        -0.646329         1.469930
 C         3.570014        -1.288323         1.004236
 C         4.131972        -0.372827        -0.156748
 O         4.055866         1.157102         0.088121
 C         2.728588         1.052614        -0.672713
 C         3.059659        -0.212254        -1.277515
 O         1.742347        -0.858689        -0.938429
 H         0.070316         0.948212         1.257479
 H        -0.105372         1.239166        -0.577118
 H        -0.631587        -0.336004         0.245727
 H         2.230389         0.081735         2.317512
 H         1.496852        -1.459649         1.760618
 H         4.308908        -1.476896         1.811952
 H         3.526891        -2.234135         0.544484
 H         5.194144        -0.471913        -0.531005
 H         2.348095         1.953592        -1.041649
 H         3.346524        -0.457048        -2.311001
