19
Iteration:  4314charge 0 multiplicity 1
 C         0.191819         0.686540         0.239610
 C         1.597751         0.039511         0.135643
 C         2.230096        -0.708872         1.405182
 C         3.629841        -1.150984         1.026698
 C         4.127094        -0.370772        -0.186506
 O         3.957378         1.029079         0.247060
 C         2.665955         1.016217        -0.499406
 C         3.030255        -0.289134        -1.405837
 O         1.791311        -0.919562        -1.069598
 H         0.253372         1.692872         0.704094
 H        -0.109878         0.728975        -0.831658
 H        -0.647449         0.098395         0.514299
 H         2.289162         0.049172         2.166603
 H         1.501272        -1.473904         1.743232
 H         4.391413        -1.069371         1.738655
 H         3.742707        -2.235352         0.741509
 H         5.160276        -0.619712        -0.367309
 H         2.357474         1.919955        -1.074656
 H         3.423033        -0.289136        -2.427238
