19
Iteration:   606
 C         0.130297         0.471873         0.125182
 C         1.615342         0.086028         0.177392
 C         2.238606        -0.434734         1.486691
 C         3.505887        -1.199055         0.975205
 C         4.116882        -0.430936        -0.196494
 O         4.029938         1.012547         0.117672
 C         2.708074         1.020353        -0.440606
 C         2.989010        -0.186880        -1.345917
 O         1.883675        -0.965316        -1.005873
 H        -0.089356         1.418950         0.581905
 H        -0.234087         0.482751        -0.927067
 H        -0.361502        -0.386643         0.610428
 H         2.441384         0.496735         2.039967
 H         1.531297        -1.078358         2.058448
 H         4.275497        -1.315725         1.813711
 H         3.271395        -2.271286         0.726268
 H         5.166888        -0.721381        -0.513404
 H         2.403403         2.030928        -0.787892
 H         3.348956        -0.106371        -2.439825
