19
Iteration:  3999
 C         0.121215         0.580754         0.279613
 C         1.595379         0.010453         0.177121
 C         2.133271        -0.725595         1.393749
 C         3.526508        -1.247133         0.964399
 C         4.201035        -0.261834        -0.137522
 O         4.056197         1.135782         0.094632
 C         2.800654         1.003064        -0.582450
 C         3.081628        -0.272227        -1.287132
 O         1.733274        -0.898561        -1.025934
 H         0.081945         1.354407         1.148652
 H        -0.076892         1.306994        -0.619149
 H        -0.654234        -0.168774         0.509362
 H         2.223509        -0.092502         2.307429
 H         1.459396        -1.661081         1.616910
 H         4.172109        -1.309682         1.826495
 H         3.370149        -2.192967         0.322806
 H         5.307248        -0.531143        -0.170117
 H         2.395873         1.921509        -1.101975
 H         3.591276        -0.243010        -2.307394
