19
Iteration:  3209
 C         0.181713         0.578374         0.203773
 C         1.606568         0.072681         0.167318
 C         2.204140        -0.607692         1.378218
 C         3.615004        -1.236183         0.997729
 C         4.122582        -0.369451        -0.217062
 O         3.960350         0.961618         0.196323
 C         2.714306         0.992638        -0.483254
 C         3.034184        -0.136449        -1.352733
 O         1.804953        -0.928951        -1.023193
 H        -0.001968         1.324006         1.010278
 H        -0.155791         1.071687        -0.738262
 H        -0.530957        -0.311611         0.236149
 H         2.437983         0.282840         2.014679
 H         1.612416        -1.372902         1.834760
 H         4.241311        -1.041884         1.859649
 H         3.625270        -2.281927         0.736239
 H         5.117464        -0.521226        -0.607063
 H         2.369222         2.038456        -0.763273
 H         3.314924        -0.016641        -2.351945
