19
Iteration:  3730
 C         0.205761         0.687391         0.199213
 C         1.618449         0.112487         0.137473
 C         2.167680        -0.745194         1.364517
 C         3.580682        -1.232480         0.904523
 C         4.159641        -0.395520        -0.205368
 O         3.979782         1.079020         0.178776
 C         2.674357         1.033441        -0.500253
 C         2.999982        -0.201235        -1.293735
 O         1.884764        -0.949187        -0.940142
 H         0.023730         1.272100         1.085896
 H        -0.272650         1.117462        -0.720135
 H        -0.426512        -0.158880         0.427613
 H         1.968881        -0.075412         2.281301
 H         1.519822        -1.616684         1.621839
 H         4.242821        -1.480707         1.769767
 H         3.381097        -2.252434         0.536086
 H         5.197837        -0.535755        -0.640107
 H         2.396127         2.040927        -0.747989
 H         3.280744        -0.264778        -2.378719
