19
Iteration:  1669
 C         0.119587         0.526778         0.135944
 C         1.597448         0.132438         0.140083
 C         2.196249        -0.571881         1.342571
 C         3.572483        -1.219051         0.935582
 C         4.143665        -0.418221        -0.219751
 O         3.944623         1.056514         0.197689
 C         2.742641         0.998456        -0.520827
 C         3.040277        -0.192289        -1.267487
 O         1.854193        -0.941537        -0.898219
 H        -0.015531         1.424455         0.718104
 H        -0.291842         0.626103        -0.950872
 H        -0.361803        -0.213956         0.730559
 H         2.323142         0.187522         2.044064
 H         1.585849        -1.347871         1.809471
 H         4.431154        -1.025121         1.593844
 H         3.494572        -2.343160         0.702355
 H         5.201723        -0.693320        -0.541803
 H         2.568622         2.122224        -0.852040
 H         3.350264        -0.423524        -2.265810
