19
Iteration:  2697
 C         0.160699         0.515567         0.375415
 C         1.619896         0.115484         0.129096
 C         2.151979        -0.552808         1.284735
 C         3.585297        -1.203715         0.932669
 C         4.200835        -0.393801        -0.127122
 O         3.916545         1.054038         0.209555
 C         2.687969         1.018552        -0.576743
 C         3.096256        -0.242611        -1.363724
 O         1.838271        -0.937207        -1.018179
 H         0.217297         1.366093         1.136555
 H        -0.260836         1.005741        -0.447791
 H        -0.536704        -0.296172         0.715260
 H         2.245364         0.094579         2.167825
 H         1.329564        -1.339097         1.530696
 H         4.299910        -1.467723         1.834042
 H         3.462464        -2.164096         0.372990
 H         5.325660        -0.607278        -0.387181
 H         2.552668         1.971788        -1.080490
 H         3.269811        -0.285134        -2.427674
