19
Iteration:  3168charge 0 multiplicity 1
 C         0.198076         0.505820         0.331421
 C         1.602633         0.081330         0.090110
 C         2.264237        -0.577411         1.302731
 C         3.519340        -1.297127         0.962756
 C         4.183657        -0.362220        -0.078410
 O         3.945981         1.048531         0.191262
 C         2.711474         1.071225        -0.617916
 C         3.047312        -0.233532        -1.310357
 O         1.785645        -0.861791        -1.068965
 H        -0.062872         0.900259         1.376071
 H        -0.308610         1.173017        -0.327918
 H        -0.296692        -0.496511         0.400116
 H         2.553504         0.166608         2.023028
 H         1.493340        -1.152846         1.851490
 H         4.150882        -1.375437         1.871227
 H         3.354066        -2.299954         0.651046
 H         5.254606        -0.586472        -0.244088
 H         2.464966         1.979021        -1.074431
 H         3.386567        -0.321438        -2.325712
