19
Iteration:  1767charge 0 multiplicity 1
 C         0.239687         0.609082         0.188044
 C         1.646442         0.007911         0.129515
 C         2.233230        -0.616085         1.400050
 C         3.700614        -1.205835         1.010410
 C         4.135412        -0.356202        -0.128909
 O         3.919196         1.082303         0.135635
 C         2.661304         0.949599        -0.564144
 C         3.036781        -0.282523        -1.245154
 O         1.703422        -0.883578        -1.047009
 H         0.016886         1.076555         1.108015
 H         0.242678         1.406507        -0.655325
 H        -0.491652        -0.136360         0.000548
 H         2.394579         0.008692         2.227591
 H         1.609571        -1.507440         1.682154
 H         4.050951        -1.047033         1.990306
 H         3.680884        -2.259669         0.661668
 H         5.237691        -0.398826        -0.349651
 H         2.163204         1.974744        -0.929223
 H         3.305024        -0.342386        -2.305310
