19
Iteration:  2628
 C         0.135910         0.569243         0.179510
 C         1.546317         0.017000         0.116397
 C         2.242959        -0.567219         1.386477
 C         3.717517        -1.150707         0.900782
 C         4.095997        -0.453871        -0.309908
 O         3.912798         0.937690         0.281913
 C         2.695617         1.058439        -0.436025
 C         2.994240        -0.201839        -1.320385
 O         1.859109        -0.895225        -0.987187
 H         0.024140         1.200822         0.978072
 H         0.079997         1.246032        -0.646169
 H        -0.649064        -0.175983         0.067463
 H         2.307656         0.234561         2.256061
 H         1.701947        -1.401643         1.832201
 H         4.502135        -0.761455         1.630200
 H         3.826429        -2.310528         0.891853
 H         5.097794        -0.648790        -0.547905
 H         2.292926         2.101498        -0.643416
 H         3.336212        -0.196685        -2.406436
