19
Iteration:   247
 C         0.238832         0.569143         0.180969
 C         1.617464         0.186361         0.119159
 C         2.085943        -0.675509         1.310192
 C         3.576720        -1.052760         1.036395
 C         4.084738        -0.370790        -0.194125
 O         3.952715         1.024539         0.108868
 C         2.694598         1.007664        -0.534004
 C         3.047057        -0.328530        -1.285585
 O         1.908906        -0.972534        -0.881104
 H         0.241198         1.459128         0.960951
 H        -0.128946         1.018262        -0.697765
 H        -0.515517        -0.121516         0.427264
 H         2.067654        -0.281622         2.311366
 H         1.387193        -1.547291         1.179385
 H         4.319395        -0.755076         1.861511
 H         3.751297        -2.211765         1.000902
 H         5.111263        -0.696761        -0.569307
 H         2.485954         2.009372        -1.007074
 H         3.368114        -0.505333        -2.376499
