19
Iteration:  2277charge 0 multiplicity 1
 C         0.185301         0.455647         0.141407
 C         1.606214         0.045726         0.176836
 C         2.311371        -0.558940         1.399497
 C         3.575610        -1.235549         0.921846
 C         4.157762        -0.445137        -0.223718
 O         3.973741         1.051192         0.159593
 C         2.636481         1.019507        -0.500474
 C         2.995381        -0.178430        -1.258941
 O         1.823056        -0.823066        -0.928376
 H         0.009819         1.222056         0.954573
 H        -0.130307         1.057339        -0.838959
 H        -0.487057        -0.380899         0.321613
 H         2.432936         0.163799         2.233642
 H         1.590732        -1.270341         1.745065
 H         4.213545        -1.370700         1.781850
 H         3.467711        -2.192683         0.510042
 H         5.144898        -0.738557        -0.635890
 H         2.262749         2.080688        -0.891208
 H         3.148616        -0.225409        -2.424249
