19
Iteration:  4135
 C         0.182099         0.602589         0.296072
 C         1.510000        -0.069408         0.072107
 C         2.225440        -0.613608         1.372142
 C         3.682477        -1.279314         1.057426
 C         4.149997        -0.377287        -0.199064
 O         3.986285         1.106155         0.219922
 C         2.769470         1.037673        -0.458195
 C         3.019225        -0.228631        -1.334850
 O         1.732838        -0.908714        -1.173971
 H         0.289637         1.604812         0.777823
 H        -0.192950         0.705093        -0.760553
 H        -0.541518        -0.003822         0.990317
 H         2.314580         0.350460         1.960759
 H         1.436639        -1.136111         1.858180
 H         4.194291        -0.941086         2.032583
 H         3.690082        -2.302730         0.844045
 H         5.176501        -0.650750        -0.508839
 H         2.357977         1.972307        -0.882279
 H         3.320211        -0.398667        -2.392477
