19
Iteration:  2738
 C         0.218197         0.573486         0.136239
 C         1.593381         0.028047         0.215482
 C         2.296610        -0.650804         1.451718
 C         3.657774        -1.236658         1.012692
 C         4.196482        -0.414463        -0.197091
 O         3.912720         1.034632         0.172323
 C         2.695030         1.006277        -0.470483
 C         2.962274        -0.143171        -1.334839
 O         1.735066        -0.886810        -1.083545
 H         0.089012         1.492520         0.624496
 H         0.157409         0.705978        -0.907953
 H        -0.615954        -0.090818         0.479808
 H         2.502742         0.318678         2.089393
 H         1.710758        -1.454500         1.857854
 H         4.309124        -1.253991         1.905729
 H         3.291226        -2.208602         0.620240
 H         5.199478        -0.564040        -0.461067
 H         2.201696         1.970613        -0.702156
 H         3.366652        -0.009512        -2.362859
