19
Iteration:  2720charge 0 multiplicity 1
 C         0.256418         0.585909         0.212691
 C         1.637127        -0.044093         0.110598
 C         2.266838        -0.554076         1.406624
 C         3.605749        -1.251094         0.942656
 C         4.014199        -0.384967        -0.198009
 O         3.930042         1.031093         0.265214
 C         2.638075         1.026034        -0.456730
 C         3.040053        -0.230554        -1.335883
 O         1.824853        -0.896846        -1.103065
 H         0.281846         1.501201         0.914926
 H        -0.267863         0.931597        -0.705420
 H        -0.411799        -0.172510         0.658683
 H         2.582785         0.281578         1.975614
 H         1.508658        -1.188925         2.029372
 H         4.374487        -0.959678         1.770962
 H         3.698771        -2.333105         0.763893
 H         5.100242        -0.460250        -0.658916
 H         2.314052         1.992074        -0.815766
 H         3.252718        -0.284809        -2.384305
