19
Iteration:   143charge 0 multiplicity 1
 C         0.125341         0.491625         0.033469
 C         1.631610         0.057305         0.167346
 C         2.157796        -0.570967         1.483112
 C         3.638610        -1.196525         1.127144
 C         4.164773        -0.400026        -0.131074
 O         4.102151         1.112326         0.022200
 C         2.761437         0.963026        -0.516390
 C         2.964225        -0.267552        -1.267353
 O         1.690297        -0.859038        -0.997328
 H        -0.165656         1.132412         0.813314
 H        -0.022561         0.977351        -0.960653
 H        -0.470401        -0.435570         0.110951
 H         2.292391         0.233786         2.248081
 H         1.572085        -1.371318         1.929434
 H         4.417458        -1.051210         1.816389
 H         3.572829        -2.248376         0.896896
 H         5.191988        -0.625291        -0.450097
 H         2.364493         1.934196        -0.939071
 H         3.259955        -0.291014        -2.290868
