19
Iteration:   552charge 0 multiplicity 1
 C         0.219224         0.703500         0.361009
 C         1.591951         0.097962         0.072296
 C         2.115641        -0.713993         1.298171
 C         3.559057        -1.119305         1.039530
 C         4.117784        -0.298399        -0.119130
 O         3.930327         1.089850         0.125054
 C         2.677918         1.000076        -0.693436
 C         3.111606        -0.333813        -1.293500
 O         1.878838        -1.042499        -0.953028
 H         0.405555         1.320715         1.275830
 H        -0.150051         1.219043        -0.529003
 H        -0.562097         0.111142         0.812049
 H         1.822794        -0.339934         2.258436
 H         1.529093        -1.675954         1.185857
 H         4.318364        -0.905779         1.869578
 H         3.617489        -2.158227         0.752683
 H         5.233047        -0.513393        -0.375117
 H         2.502786         1.899786        -1.335660
 H         3.633326        -0.521484        -2.319753
