19
Iteration:  2309
 C         0.128288         0.430473         0.325519
 C         1.594735         0.081168         0.140797
 C         2.214751        -0.634986         1.389537
 C         3.487616        -1.238504         0.914439
 C         4.167544        -0.356266        -0.136120
 O         4.034393         1.119847         0.147302
 C         2.754614         1.023831        -0.610119
 C         3.011444        -0.242019        -1.330599
 O         1.833793        -0.816641        -1.001882
 H         0.065596         0.979902         1.317064
 H        -0.453705         0.868656        -0.602525
 H        -0.431530        -0.484320         0.501926
 H         2.427794         0.250529         2.019472
 H         1.496972        -1.253100         1.834325
 H         4.091687        -1.358407         1.805989
 H         3.582547        -2.190130         0.485421
 H         5.121616        -0.812458        -0.395204
 H         2.504152         2.094500        -0.936279
 H         3.415720        -0.475428        -2.352717
