19
Iteration:  3294
 C         0.202950         0.559541         0.332637
 C         1.575113         0.122451         0.128669
 C         2.186099        -0.502297         1.315549
 C         3.608693        -1.215517         0.892989
 C         4.218739        -0.416614        -0.141350
 O         3.907325         0.943275         0.321130
 C         2.664642         1.013271        -0.577928
 C         3.032681        -0.252847        -1.380825
 O         1.861575        -0.913977        -1.114440
 H         0.190116         1.189073         1.245674
 H        -0.283571         1.054339        -0.546179
 H        -0.481554        -0.212597         0.666225
 H         2.268416         0.300275         2.153606
 H         1.624045        -1.317410         1.789128
 H         4.226203        -0.992667         1.770041
 H         3.408651        -2.324469         0.800361
 H         5.239386        -0.394898        -0.431804
 H         2.303200         2.106353        -0.837220
 H         3.353742        -0.351373        -2.430757
