19
Iteration:  1305
 C         0.286278         0.654202         0.237237
 C         1.584405        -0.057123         0.128997
 C         2.161211        -0.729921         1.406428
 C         3.651010        -1.052757         1.070590
 C         4.105039        -0.396342        -0.210393
 O         3.931229         1.064218         0.136679
 C         2.650589         0.952775        -0.538845
 C         3.016923        -0.220683        -1.275812
 O         1.783693        -0.928049        -1.098861
 H         0.524912         1.478483         0.996038
 H         0.195454         1.194725        -0.661691
 H        -0.614325         0.003459         0.425604
 H         2.262111         0.083196         2.143322
 H         1.619702        -1.642518         1.701308
 H         4.358030        -0.764304         1.907075
 H         3.892868        -2.132673         1.108828
 H         5.115390        -0.593804        -0.569147
 H         2.335735         1.996605        -0.772125
 H         3.414310        -0.382140        -2.380283
