19
Iteration:    71charge 0 multiplicity 1
 C         0.205643         0.630846         0.266623
 C         1.615338         0.055385         0.121895
 C         2.112704        -0.600015         1.428408
 C         3.492600        -1.312686         1.030349
 C         4.118906        -0.358728        -0.036979
 O         3.969113         1.206653        -0.023743
 C         2.721750         0.993395        -0.679053
 C         3.126231        -0.336276        -1.218485
 O         1.851671        -0.907435        -0.988140
 H         0.236180         1.478208         1.004654
 H        -0.252154         0.922844        -0.749593
 H        -0.417985        -0.197261         0.736475
 H         2.250239        -0.055646         2.334910
 H         1.472381        -1.445120         1.656151
 H         4.201140        -1.566236         1.943052
 H         3.373255        -2.201738         0.400069
 H         5.189907        -0.621825        -0.227341
 H         2.462763         1.787147        -1.314889
 H         3.650245        -0.515295        -2.222355
