19
Iteration:  2097charge 0 multiplicity 1
 C         0.215234         0.481853         0.375031
 C         1.619406         0.088881         0.060702
 C         2.145432        -0.583443         1.313167
 C         3.568513        -1.157301         0.994028
 C         4.137385        -0.379173        -0.159224
 O         3.953098         1.086999         0.129993
 C         2.750726         0.979174        -0.523233
 C         3.030470        -0.259482        -1.349457
 O         1.844003        -0.905557        -1.005612
 H         0.111155         1.103991         1.344053
 H        -0.110464         1.056770        -0.461975
 H        -0.549167        -0.362292         0.337599
 H         2.234880         0.181426         2.143173
 H         1.458872        -1.403756         1.644202
 H         4.218751        -1.184332         1.855891
 H         3.466649        -2.198900         0.619455
 H         5.179406        -0.476179        -0.451121
 H         2.279054         1.842333        -0.896022
 H         3.371044        -0.279262        -2.333078
