19
Iteration:  2928charge 0 multiplicity 1
 C         0.220236         0.536216         0.333015
 C         1.640271         0.083280         0.067124
 C         2.237134        -0.560862         1.255563
 C         3.580194        -1.161478         0.981020
 C         4.096559        -0.433224        -0.119222
 O         3.893774         0.985159         0.244119
 C         2.657772         1.039256        -0.571343
 C         3.068960        -0.240637        -1.350732
 O         1.835237        -0.890730        -1.039943
 H         0.366855         1.412889         1.181137
 H        -0.274545         0.910440        -0.578981
 H        -0.464115        -0.254582         0.853080
 H         2.441332         0.124755         2.070614
 H         1.387435        -1.391084         1.462467
 H         4.253359        -1.054026         1.979048
 H         3.519641        -2.231012         0.607311
 H         5.090861        -0.542746        -0.635247
 H         2.445906         2.085811        -0.740092
 H         3.569612        -0.496242        -2.286406
