19
Iteration:  4432
 C         0.194690         0.538128         0.207064
 C         1.648625         0.104814         0.130167
 C         2.277008        -0.561680         1.352964
 C         3.662129        -1.233228         1.006420
 C         4.117877        -0.428452        -0.156504
 O         3.840830         0.960238         0.198718
 C         2.682195         0.995687        -0.528921
 C         3.044477        -0.231835        -1.330708
 O         1.770227        -0.859274        -1.038941
 H         0.053227         1.290179         1.070402
 H         0.150241         1.174170        -0.726479
 H        -0.588620        -0.237954         0.180584
 H         2.635961         0.280679         2.015150
 H         1.513780        -1.114226         1.872131
 H         4.335343        -0.916359         1.885662
 H         3.803883        -2.307524         0.898058
 H         5.168121        -0.527512        -0.353965
 H         2.383098         2.025297        -0.832960
 H         3.253689        -0.263514        -2.404441
