19
Iteration:   975charge 0 multiplicity 1
 C         0.167960         0.614609         0.269269
 C         1.596012         0.036069         0.112583
 C         2.129628        -0.763949         1.327034
 C         3.657153        -1.134789         1.081881
 C         4.114891        -0.333870        -0.209952
 O         4.026347         1.059941         0.124505
 C         2.706809         1.029805        -0.564148
 C         2.998940        -0.240740        -1.321186
 O         1.812962        -0.924997        -0.981378
 H         0.236637         1.495841         0.787452
 H        -0.112749         0.952737        -0.764394
 H        -0.485269        -0.078661         0.836975
 H         1.995166        -0.230212         2.336113
 H         1.557757        -1.677787         1.210655
 H         4.361251        -0.833202         1.887902
 H         3.776979        -2.190544         1.109516
 H         5.130532        -0.510885        -0.495338
 H         2.343525         2.043198        -0.851784
 H         3.327619        -0.389056        -2.367401
