19
Iteration:  2162charge 0 multiplicity 1
 C         0.147794         0.526840         0.205907
 C         1.626345        -0.019945         0.140991
 C         2.275898        -0.534022         1.424476
 C         3.678676        -1.173782         1.016967
 C         4.068392        -0.411970        -0.256783
 O         3.935272         1.007428         0.204414
 C         2.716503         1.042443        -0.458681
 C         2.996362        -0.157939        -1.369742
 O         1.796264        -0.922014        -1.064228
 H         0.010113         1.340962         1.041033
 H        -0.109762         0.932861        -0.767943
 H        -0.552017        -0.364666         0.460111
 H         2.554173         0.308658         2.141844
 H         1.632968        -1.263044         2.037693
 H         4.441857        -1.183403         1.812730
 H         3.566340        -2.284482         0.736083
 H         5.063423        -0.766666        -0.588222
 H         2.422700         1.976272        -0.828093
 H         3.161076        -0.097325        -2.400063
