19
Iteration:   749charge 0 multiplicity 1
 C         0.128243         0.448342         0.173943
 C         1.641027         0.068081         0.157683
 C         2.176957        -0.530334         1.435178
 C         3.550487        -1.153421         0.960900
 C         4.138824        -0.417931        -0.227922
 O         4.034330         1.016051         0.120144
 C         2.737932         0.993236        -0.437453
 C         3.050109        -0.196192        -1.294939
 O         1.779089        -0.860505        -1.005425
 H         0.001186         1.496676         0.457761
 H        -0.288591         0.468445        -0.801383
 H        -0.442367        -0.234091         0.793551
 H         2.395165         0.247334         2.161853
 H         1.599487        -1.355170         1.903505
 H         4.287287        -1.224774         1.807440
 H         3.481923        -2.224661         0.706561
 H         5.142667        -0.844741        -0.531575
 H         2.440632         1.971823        -0.823222
 H         3.303171        -0.101793        -2.390717
