19
Iteration:  3184
 C         0.241071         0.441201         0.324096
 C         1.651607         0.029281         0.057261
 C         2.255421        -0.510256         1.433710
 C         3.615045        -1.253599         1.035133
 C         4.061729        -0.421994        -0.144822
 O         3.915508         1.075006         0.220605
 C         2.708349         0.986456        -0.502299
 C         3.074385        -0.255388        -1.328864
 O         1.736931        -0.809252        -1.157246
 H         0.315721         1.090394         1.140596
 H        -0.025568         1.156477        -0.529838
 H        -0.607163        -0.184962         0.141846
 H         2.518028         0.507104         1.832626
 H         1.538832        -1.243489         1.836927
 H         4.344078        -1.494504         1.829711
 H         3.261105        -2.169664         0.415575
 H         5.041227        -0.512777        -0.633224
 H         2.367465         2.055516        -0.845730
 H         3.529239        -0.417898        -2.362419
