19
Iteration:  3488charge 0 multiplicity 1
 C         0.187025         0.522187         0.162710
 C         1.640671        -0.039051         0.151329
 C         2.271604        -0.524420         1.416299
 C         3.678099        -1.244734         0.955996
 C         4.147392        -0.431272        -0.176586
 O         3.938066         1.037369         0.220196
 C         2.685196         0.993100        -0.450336
 C         3.007778        -0.166748        -1.334254
 O         1.706908        -0.844888        -1.043378
 H        -0.216511         1.337508         0.872123
 H         0.109255         1.213374        -0.742348
 H        -0.535760        -0.239448         0.011381
 H         2.503366         0.296258         2.018744
 H         1.650717        -1.302979         1.917247
 H         4.369333        -1.237048         1.787421
 H         3.460016        -2.226100         0.593362
 H         5.170340        -0.745847        -0.616272
 H         2.312909         1.918246        -0.725082
 H         3.456736        -0.177209        -2.315280
