19
Iteration:   434
 C         0.246074         0.538414         0.264239
 C         1.614967         0.058075         0.152373
 C         2.199396        -0.584583         1.372467
 C         3.531385        -1.291778         1.037632
 C         4.154950        -0.333791         0.006006
 O         3.942673         1.172856         0.036527
 C         2.715533         0.983470        -0.634778
 C         3.100907        -0.267111        -1.251701
 O         1.763849        -0.929556        -1.073686
 H         0.188456         1.345585         1.113415
 H         0.048399         0.832186        -0.695505
 H        -0.370116        -0.280064         0.534489
 H         2.430623         0.231167         2.056447
 H         1.295373        -1.102313         1.795587
 H         4.111259        -1.719006         1.852902
 H         3.175485        -2.127147         0.497368
 H         5.237454        -0.547242        -0.174225
 H         2.285590         1.867865        -1.160022
 H         3.550964        -0.395065        -2.257050
