19
Iteration:  3047charge 0 multiplicity 1
 C         0.200731         0.494634         0.373885
 C         1.644212         0.072147         0.099450
 C         2.192499        -0.633537         1.412360
 C         3.474800        -1.292447         0.953105
 C         4.088964        -0.285338        -0.043318
 O         3.999751         1.109124         0.072930
 C         2.799543         1.013596        -0.565392
 C         3.075174        -0.228790        -1.363227
 O         1.804599        -0.877419        -1.047542
 H         0.107512         1.376790         1.040418
 H        -0.371133         0.878614        -0.465518
 H        -0.472365        -0.353860         0.498337
 H         2.238513         0.096887         2.194642
 H         1.543349        -1.499928         1.606888
 H         4.162731        -1.538938         1.780544
 H         3.236219        -2.130834         0.329875
 H         5.140373        -0.537877        -0.160302
 H         2.406418         1.901902        -0.957744
 H         3.449156        -0.350407        -2.350724
