19
Iteration:  2625charge 0 multiplicity 1
 C         0.130061         0.551240         0.172244
 C         1.563868         0.001702         0.113531
 C         2.245478        -0.563280         1.369392
 C         3.717608        -1.190770         0.930976
 C         4.105397        -0.427224        -0.288840
 O         3.916968         0.945240         0.288115
 C         2.697456         1.047379        -0.460705
 C         2.958413        -0.185959        -1.312840
 O         1.860792        -0.882606        -0.977019
 H        -0.000940         1.277018         0.991073
 H         0.097100         1.337109        -0.705660
 H        -0.639929        -0.168326         0.131566
 H         2.322259         0.294455         2.204263
 H         1.744303        -1.460122         1.759009
 H         4.500515        -0.775271         1.519816
 H         3.751529        -2.326043         0.885254
 H         5.108598        -0.586535        -0.658215
 H         2.388532         2.094728        -0.677041
 H         3.277739        -0.267018        -2.380311
