19
Iteration:  1470
 C         0.218450         0.616742         0.298079
 C         1.587239        -0.008123         0.109962
 C         2.127295        -0.771184         1.359237
 C         3.559786        -1.189632         1.105838
 C         4.138668        -0.292477        -0.035025
 O         4.058121         1.142654         0.007248
 C         2.696733         1.027681        -0.582945
 C         3.046826        -0.278913        -1.304992
 O         1.765686        -0.918735        -1.061966
 H         0.143912         1.515822         0.968099
 H        -0.118739         0.976169        -0.655905
 H        -0.396875        -0.239114         0.521649
 H         2.219089        -0.080521         2.112523
 H         1.374691        -1.503648         1.504202
 H         4.372878        -1.172215         1.825204
 H         3.574092        -2.232238         0.845387
 H         5.185661        -0.544423        -0.188386
 H         2.358011         2.096469        -0.866596
 H         3.621854        -0.419343        -2.270697
