19
Iteration:  1827
 C         0.141952         0.424957         0.237282
 C         1.616017         0.140074         0.131577
 C         2.232672        -0.528787         1.310540
 C         3.513435        -1.315521         1.009477
 C         4.142102        -0.367645        -0.143514
 O         4.022550         1.095603         0.151265
 C         2.738114         1.061271        -0.617360
 C         3.049176        -0.248033        -1.307198
 O         1.820640        -0.837150        -0.924920
 H        -0.135650         1.251604         0.989716
 H        -0.358612         0.607501        -0.652522
 H        -0.313739        -0.571825         0.607711
 H         2.387441         0.044366         2.260136
 H         1.452765        -1.230825         1.476066
 H         4.157367        -1.614093         1.879434
 H         3.434282        -2.236780         0.429418
 H         5.137935        -0.609142        -0.525129
 H         2.421919         2.043286        -0.870020
 H         3.146417        -0.576766        -2.336196
