19
Iteration:  2303charge 0 multiplicity 1
 C         0.112364         0.460913         0.281297
 C         1.616116         0.074297         0.181499
 C         2.229891        -0.621345         1.422813
 C         3.515633        -1.256452         0.909197
 C         4.128060        -0.331315        -0.095813
 O         4.043245         1.129704         0.121977
 C         2.812164         1.036226        -0.611298
 C         3.036067        -0.245956        -1.313136
 O         1.769178        -0.838124        -1.025963
 H        -0.199437         0.957078         1.164898
 H        -0.379825         0.795473        -0.591858
 H        -0.293011        -0.589323         0.466369
 H         2.534307         0.162981         2.129868
 H         1.386511        -1.273062         1.916107
 H         4.119512        -1.504791         1.829593
 H         3.669609        -2.262415         0.271211
 H         5.132313        -0.644082        -0.504336
 H         2.371715         2.012100        -0.806227
 H         3.276317        -0.477279        -2.380384
