19
Iteration:  4921charge 0 multiplicity 1
 C         0.193289         0.571084         0.308817
 C         1.634280        -0.001648         0.099857
 C         2.227293        -0.648973         1.274336
 C         3.605227        -1.178325         1.008949
 C         4.131273        -0.345713        -0.205820
 O         3.957476         1.013850         0.206049
 C         2.651884         1.038731        -0.522033
 C         3.029100        -0.225913        -1.316423
 O         1.811692        -0.912335        -1.027234
 H         0.290377         1.601149         0.770412
 H        -0.245119         0.808131        -0.719808
 H        -0.442860        -0.176665         0.854691
 H         2.295165         0.194547         2.051034
 H         1.483581        -1.332011         1.647724
 H         4.300212        -0.873646         1.886689
 H         3.472557        -2.283902         0.840642
 H         5.175782        -0.624644        -0.460877
 H         2.350869         2.021756        -0.859163
 H         3.361286        -0.247776        -2.318567
