19
Iteration:  4668charge 0 multiplicity 1
 C         0.177161         0.537526         0.248557
 C         1.623764         0.074728         0.140110
 C         2.166449        -0.652212         1.356772
 C         3.587859        -1.289090         1.011356
 C         4.203202        -0.305509        -0.077623
 O         4.025961         1.106112         0.069704
 C         2.671181         0.986376        -0.566799
 C         3.070181        -0.260468        -1.278396
 O         1.743890        -0.831694        -0.983198
 H         0.028616         1.638727         0.567602
 H        -0.271059         0.538212        -0.773765
 H        -0.385279        -0.191996         1.009933
 H         2.098935         0.028063         2.274329
 H         1.487315        -1.538126         1.484249
 H         4.309675        -1.590922         1.808975
 H         3.368896        -2.103942         0.338411
 H         5.295217        -0.576351        -0.415705
 H         2.539681         1.980039        -0.946303
 H         3.231906        -0.436516        -2.409599
