19
Iteration:  2771
 C         0.170936         0.537852         0.257141
 C         1.607402         0.115787         0.214154
 C         2.126693        -0.673611         1.281040
 C         3.519244        -1.216316         0.878386
 C         4.148277        -0.437288        -0.233475
 O         4.010977         1.113876         0.168808
 C         2.787391         1.124055        -0.568410
 C         3.051674        -0.215901        -1.257038
 O         1.846077        -0.974631        -0.891238
 H        -0.134135         1.294133         0.945000
 H        -0.170349         0.942782        -0.685698
 H        -0.448185        -0.399523         0.329385
 H         2.243948        -0.049103         2.263640
 H         1.487182        -1.463943         1.602997
 H         4.106285        -1.219696         1.794281
 H         3.459769        -2.299509         0.680813
 H         5.077527        -0.461496        -0.606229
 H         2.419824         2.087915        -0.973248
 H         3.328582        -0.245409        -2.321480
