19
Iteration:  1705
 C         0.199454         0.480645         0.226811
 C         1.613536        -0.016505         0.101949
 C         2.231653        -0.542327         1.476251
 C         3.570364        -1.155147         1.013300
 C         4.116066        -0.428385        -0.094429
 O         3.955196         1.060151         0.158944
 C         2.795721         1.045315        -0.505282
 C         3.025170        -0.266448        -1.354428
 O         1.739849        -0.861474        -1.141515
 H         0.171020         1.442924         0.783453
 H        -0.343477         0.691811        -0.706865
 H        -0.476922        -0.325523         0.713757
 H         2.379699         0.440356         2.049509
 H         1.693608        -1.198700         2.130429
 H         4.344590        -1.270070         1.857395
 H         3.452289        -2.246288         0.620545
 H         5.146067        -0.639056        -0.543851
 H         2.299714         1.974591        -0.921252
 H         3.603102        -0.227999        -2.308292
