19
Iteration:  4158charge 0 multiplicity 1
 C         0.234708         0.569249         0.288901
 C         1.597999         0.055923         0.064976
 C         2.271978        -0.672259         1.404834
 C         3.581136        -1.120485         1.085173
 C         4.135184        -0.377743        -0.163092
 O         3.922114         0.986058         0.142238
 C         2.700041         0.961932        -0.511691
 C         3.068718        -0.268730        -1.326981
 O         1.746389        -0.806215        -1.123070
 H         0.122442         1.476296         0.956948
 H        -0.146812         0.716982        -0.734194
 H        -0.343782        -0.283504         0.799138
 H         2.221441         0.131643         2.225441
 H         1.625512        -1.469619         1.707696
 H         4.358871        -1.129746         1.937453
 H         3.445271        -2.109319         0.681841
 H         5.193513        -0.688280        -0.255779
 H         2.388203         1.946292        -1.007906
 H         3.375936        -0.016006        -2.400668
