19
Iteration:  3343charge 0 multiplicity 1
 C         0.161897         0.526756         0.145906
 C         1.660798         0.076986         0.207401
 C         2.176620        -0.665987         1.455046
 C         3.516116        -1.262558         0.995848
 C         4.165776        -0.330253        -0.200034
 O         4.049064         1.088300         0.037115
 C         2.726703         1.054225        -0.374740
 C         3.045079        -0.219655        -1.316029
 O         1.782228        -0.894001        -0.999388
 H        -0.179305         1.048545         1.076362
 H        -0.006413         0.907200        -0.851222
 H        -0.544638        -0.321402         0.017590
 H         2.216820         0.068712         2.269762
 H         1.469071        -1.510111         1.701621
 H         4.247495        -1.514147         1.794491
 H         3.186192        -2.061806         0.316056
 H         5.268071        -0.548842        -0.491092
 H         2.391421         2.043968        -0.637155
 H         3.237681        -0.143703        -2.430370
