19
Iteration:  4817charge 0 multiplicity 1
 C         0.280666         0.579189         0.231112
 C         1.640557         0.061548         0.096137
 C         2.269612        -0.535094         1.393102
 C         3.670705        -1.249430         1.006407
 C         4.116455        -0.381387        -0.195665
 O         3.926065         1.100437         0.222845
 C         2.595457         0.927021        -0.531916
 C         3.032510        -0.280212        -1.288380
 O         1.700969        -0.877224        -1.077095
 H        -0.044675         1.036461         1.131312
 H        -0.018161         1.101422        -0.690034
 H        -0.265641        -0.364593         0.165685
 H         2.579443         0.131366         2.167330
 H         1.635848        -1.390374         1.832270
 H         4.295302        -1.179859         1.904546
 H         3.482539        -2.397177         0.858931
 H         5.165042        -0.473896        -0.534744
 H         2.345657         1.958309        -1.052276
 H         3.530473        -0.222515        -2.317463
