19
Iteration:   786charge 0 multiplicity 1
 C         0.183207         0.481709         0.275355
 C         1.594869         0.097094         0.088672
 C         2.289669        -0.467296         1.405217
 C         3.524131        -1.235338         0.922627
 C         4.118211        -0.415786        -0.169825
 O         3.905820         1.037653         0.244464
 C         2.748182         1.007140        -0.552252
 C         3.089583        -0.228408        -1.315629
 O         1.798111        -0.915342        -1.059380
 H         0.016866         1.401517         0.924523
 H        -0.320963         0.600759        -0.723436
 H        -0.310872        -0.340493         0.793943
 H         2.606290         0.379752         2.060860
 H         1.514433        -1.081387         1.939331
 H         4.337317        -1.394384         1.760464
 H         3.322087        -2.243756         0.502448
 H         5.178670        -0.567791        -0.436121
 H         2.377245         1.963323        -0.998216
 H         3.456575        -0.316656        -2.307765
