19
Iteration:  1887charge 0 multiplicity 1
 C         0.236301         0.658077         0.207406
 C         1.593907         0.015782         0.107430
 C         2.233923        -0.648285         1.299628
 C         3.636062        -1.157289         0.998860
 C         4.081053        -0.370751        -0.222527
 O         3.904038         1.004809         0.303641
 C         2.701109         1.043026        -0.534796
 C         2.986718        -0.214803        -1.352462
 O         1.866018        -0.972582        -0.959737
 H         0.273988         1.367398         1.015833
 H        -0.169482         1.073331        -0.815402
 H        -0.377120        -0.198251         0.497238
 H         2.317658         0.085692         2.112904
 H         1.458761        -1.433714         1.720842
 H         4.367713        -0.784141         1.707433
 H         3.688301        -2.239911         0.727533
 H         5.009272        -0.842490        -0.716358
 H         2.311822         1.991160        -1.000168
 H         3.185861        -0.220697        -2.459960
