19
Iteration:  1349
 C         0.114393         0.523967         0.238046
 C         1.586552         0.079613         0.142397
 C         2.183658        -0.626242         1.359854
 C         3.613726        -1.135215         0.963790
 C         4.112916        -0.386439        -0.183095
 O         3.987493         1.032022         0.170198
 C         2.769473         1.054035        -0.570544
 C         3.077076        -0.316921        -1.286535
 O         1.804101        -0.857100        -0.983964
 H         0.087528         1.435498         0.939244
 H        -0.304052         0.811306        -0.681391
 H        -0.384683        -0.368771         0.691399
 H         2.211393         0.070250         2.216026
 H         1.507930        -1.481044         1.534213
 H         4.271546        -0.916019         1.868275
 H         3.673349        -2.240816         0.782904
 H         5.161466        -0.629357        -0.405224
 H         2.322789         1.940220        -1.138425
 H         3.312005        -0.503594        -2.425375
