19
Iteration:  3613
 C         0.185182         0.561523         0.179250
 C         1.602188         0.058275         0.185466
 C         2.162103        -0.678537         1.343238
 C         3.576816        -1.329652         0.837902
 C         4.161812        -0.389308        -0.124579
 O         3.981256         1.180134         0.117429
 C         2.807246         1.069127        -0.464466
 C         3.042382        -0.218033        -1.262821
 O         1.757776        -0.894445        -0.941091
 H         0.094556         1.475082         0.826026
 H        -0.190941         0.803916        -0.887138
 H        -0.591479        -0.203894         0.623056
 H         2.381504        -0.216702         2.362250
 H         1.480358        -1.455694         1.689653
 H         4.297548        -1.551400         1.647549
 H         3.409281        -2.346121         0.432739
 H         5.170191        -0.541512        -0.458818
 H         2.359540         2.122025        -0.692949
 H         3.330543        -0.303461        -2.362073
