19
Iteration:   988
 C         0.270266         0.627936         0.342811
 C         1.652949         0.109872         0.162552
 C         2.057833        -0.789077         1.251909
 C         3.545568        -1.063282         1.010167
 C         4.183183        -0.419869        -0.183683
 O         3.933724         1.092108         0.081738
 C         2.694854         1.019967        -0.523344
 C         3.049714        -0.250626        -1.389781
 O         1.890990        -0.973275        -0.914704
 H         0.283609         1.355157         1.113333
 H        -0.221587         0.987440        -0.553071
 H        -0.500575        -0.121662         0.584083
 H         1.864786        -0.436348         2.278191
 H         1.361941        -1.628914         1.260632
 H         3.958084        -0.485511         1.770580
 H         3.842658        -2.097877         0.969978
 H         5.183786        -0.741573        -0.348466
 H         2.378181         1.909279        -0.972174
 H         3.223509        -0.233935        -2.496753
