19
Iteration:  2364charge 0 multiplicity 1
 C         0.221289         0.600477         0.230219
 C         1.582358        -0.086699         0.140228
 C         2.245743        -0.712102         1.387319
 C         3.693596        -1.269929         0.988546
 C         4.159380        -0.325413        -0.176949
 O         3.901227         1.124803         0.150965
 C         2.683299         0.991664        -0.536953
 C         3.049309        -0.221118        -1.260312
 O         1.709445        -0.834024        -1.020916
 H         0.184068         1.475889         0.904124
 H         0.107393         1.189094        -0.807264
 H        -0.607757        -0.100101         0.351925
 H         2.236947         0.039449         2.210091
 H         1.624402        -1.497669         1.691761
 H         4.367132        -1.139227         1.823663
 H         3.696911        -2.269692         0.561401
 H         5.109229        -0.639906        -0.605400
 H         2.327792         2.041066        -0.862437
 H         3.573721        -0.247355        -2.283554
