19
Iteration:  1838charge 0 multiplicity 1
 C         0.135507         0.423248         0.256482
 C         1.615337         0.132087         0.105380
 C         2.248570        -0.614746         1.418292
 C         3.517594        -1.351793         0.936642
 C         4.165862        -0.348902        -0.060422
 O         3.973767         1.147900         0.105538
 C         2.786478         1.113818        -0.610789
 C         3.066176        -0.283999        -1.289182
 O         1.739846        -0.855107        -0.997417
 H         0.002042         1.349786         0.941915
 H        -0.185896         0.630351        -0.712449
 H        -0.428101        -0.416929         0.793435
 H         2.464458         0.183928         2.193740
 H         1.522069        -1.243149         1.858729
 H         4.261257        -1.471622         1.765426
 H         3.198718        -2.281801         0.445462
 H         5.165004        -0.661587        -0.372715
 H         2.580977         2.041390        -1.159619
 H         3.590325        -0.416993        -2.234499
