19
Iteration:  2444
 C         0.160692         0.457120         0.287025
 C         1.615358        -0.034381         0.101247
 C         2.308458        -0.557366         1.374141
 C         3.638375        -1.240384         1.022643
 C         4.181262        -0.344624        -0.153772
 O         3.941851         1.077290         0.298267
 C         2.720900         1.004170        -0.564481
 C         3.032618        -0.291512        -1.350006
 O         1.671254        -0.759757        -1.183486
 H         0.113153         1.072472         1.225804
 H        -0.318605         0.974195        -0.596875
 H        -0.542349        -0.453312         0.545236
 H         2.564921         0.329845         1.866234
 H         1.663324        -1.038548         2.111326
 H         4.304640        -1.355060         1.863281
 H         3.540129        -2.166493         0.602444
 H         5.259246        -0.678513        -0.331305
 H         2.313257         1.948221        -0.991259
 H         3.413110        -0.398302        -2.409239
