19
Iteration:   597
 C         0.210623         0.486470         0.107364
 C         1.599015        -0.025658         0.142524
 C         2.269739        -0.448962         1.478155
 C         3.549766        -1.141195         1.040054
 C         4.105804        -0.385398        -0.180317
 O         4.018146         1.005205         0.204577
 C         2.685332         0.996853        -0.559587
 C         2.998823        -0.223759        -1.285204
 O         1.777657        -0.919131        -1.086578
 H         0.088158         1.408049         0.718328
 H        -0.142190         0.520689        -0.863093
 H        -0.458815        -0.095157         0.695671
 H         2.690304         0.265144         2.088428
 H         1.631316        -1.074979         2.163867
 H         4.381063        -1.216259         1.774159
 H         3.340331        -2.065252         0.603761
 H         5.140846        -0.758040        -0.499945
 H         2.288914         2.000177        -0.785041
 H         3.293598        -0.237510        -2.373680
