19
Iteration:  1147
 C         0.261895         0.698327         0.373022
 C         1.622426         0.016631         0.087798
 C         2.159854        -0.689527         1.334481
 C         3.632726        -1.037632         1.019222
 C         4.111047        -0.337530        -0.161034
 O         3.886078         1.024613         0.226223
 C         2.673421         0.937354        -0.595844
 C         3.043272        -0.266317        -1.387108
 O         1.862319        -1.021615        -1.060428
 H         0.657323         1.438453         1.069057
 H        -0.119288         1.236228        -0.532587
 H        -0.631406         0.215359         0.643232
 H         1.851737         0.022152         2.038077
 H         1.555265        -1.570316         1.364441
 H         4.226404        -0.903654         1.946808
 H         3.643709        -2.109625         0.939383
 H         5.159240        -0.557630        -0.482092
 H         2.278273         1.968847        -0.983337
 H         3.365464        -0.424420        -2.375872
