19
Iteration:  2127charge 0 multiplicity 1
 C         0.123971         0.496844         0.218582
 C         1.598019         0.111529         0.132127
 C         2.236330        -0.614500         1.431844
 C         3.601525        -1.279748         0.909350
 C         4.160106        -0.360705        -0.195052
 O         3.961664         1.122146         0.154953
 C         2.756779         1.045263        -0.548859
 C         2.991789        -0.226845        -1.341553
 O         1.827739        -0.933095        -0.881566
 H        -0.243234         1.190360         0.986367
 H        -0.013265         1.092657        -0.772468
 H        -0.547970        -0.383065         0.056213
 H         2.657893         0.105886         2.133661
 H         1.580801        -1.345744         2.029632
 H         4.274075        -1.466984         1.790197
 H         3.251333        -2.211075         0.315751
 H         5.244828        -0.528579        -0.507645
 H         2.263381         1.929090        -0.927846
 H         3.298403        -0.239378        -2.420786
