19
Iteration:  2707
 C         0.203148         0.554924         0.318933
 C         1.584620         0.052428         0.028238
 C         2.248668        -0.579069         1.310806
 C         3.554005        -1.187381         0.953513
 C         4.155561        -0.361792        -0.206479
 O         3.890017         1.002285         0.248271
 C         2.720618         1.037848        -0.550739
 C         3.052664        -0.199244        -1.335024
 O         1.828446        -0.944849        -1.010628
 H         0.365057         1.325025         1.085549
 H        -0.249025         0.928965        -0.502276
 H        -0.451569        -0.231882         0.766471
 H         2.290557         0.251185         2.101996
 H         1.656293        -1.396768         1.809880
 H         4.305377        -1.255223         1.862425
 H         3.286692        -2.245758         0.693229
 H         5.233154        -0.602479        -0.444320
 H         2.366222         2.052351        -0.769290
 H         3.484623        -0.331338        -2.314236
