19
Iteration:  2611
 C         0.191067         0.552777         0.148876
 C         1.627362         0.064187         0.155078
 C         2.305538        -0.655144         1.337508
 C         3.661088        -1.252503         1.001739
 C         4.137872        -0.330618        -0.221676
 O         3.945804         1.030426         0.240612
 C         2.682078         1.048855        -0.489206
 C         3.001394        -0.175595        -1.352289
 O         1.732380        -0.915524        -0.973256
 H         0.019064         1.186031         1.126714
 H        -0.125339         1.008277        -0.825073
 H        -0.519419        -0.339655         0.244248
 H         2.439750         0.064511         2.094584
 H         1.508451        -1.302059         1.783970
 H         4.233590        -1.343847         1.927142
 H         3.521188        -2.256457         0.734651
 H         5.209993        -0.463253        -0.673514
 H         2.414689         1.997647        -0.913345
 H         3.186727        -0.185744        -2.405896
