19
Iteration:  4032
 C         0.237910         0.453156         0.303733
 C         1.669911         0.110671         0.068919
 C         2.222746        -0.585790         1.305111
 C         3.578979        -1.161605         1.012545
 C         4.045591        -0.373462        -0.199361
 O         3.955012         0.952813         0.231008
 C         2.764858         1.101562        -0.558966
 C         3.052592        -0.267107        -1.313055
 O         1.738675        -0.869804        -1.041157
 H         0.161090         0.934681         1.344199
 H        -0.079301         1.321574        -0.429911
 H        -0.471438        -0.355529         0.060206
 H         2.088418         0.168181         2.112470
 H         1.419427        -1.363448         1.661830
 H         4.239194        -0.950033         1.845637
 H         3.624263        -2.296972         1.125015
 H         5.100545        -0.642300        -0.522225
 H         2.492432         2.115529        -0.956047
 H         3.470878        -0.363466        -2.380901
