19
Iteration:   235charge 0 multiplicity 1
 C         0.210334         0.663133         0.201699
 C         1.630843         0.011145         0.116221
 C         2.172580        -0.654076         1.353817
 C         3.609540        -1.126501         1.088528
 C         4.124841        -0.429618        -0.147075
 O         3.911623         1.077854         0.135625
 C         2.708205         0.997632        -0.621961
 C         3.063326        -0.260284        -1.308446
 O         1.817316        -0.967770        -0.981662
 H         0.205189         1.465321         0.959689
 H        -0.037156         1.063348        -0.794559
 H        -0.491556        -0.095243         0.536989
 H         2.031474         0.023216         2.184230
 H         1.531587        -1.535719         1.583553
 H         4.223414        -0.681637         1.927759
 H         3.716089        -2.226626         1.014495
 H         5.246189        -0.588806        -0.299747
 H         2.296546         1.937400        -1.034243
 H         3.394723        -0.317240        -2.409168
