19
Iteration:  2469
 C         0.182293         0.525886         0.337048
 C         1.638968         0.091610         0.148685
 C         2.196945        -0.593464         1.311194
 C         3.566091        -1.253240         0.956476
 C         4.136533        -0.385744        -0.199145
 O         3.937814         1.059015         0.175877
 C         2.663547         1.110684        -0.573091
 C         3.066897        -0.185719        -1.337972
 O         1.864325        -0.943290        -1.004158
 H        -0.123344         0.962793         1.344519
 H        -0.213435         1.006839        -0.496689
 H        -0.349856        -0.438508         0.288966
 H         2.247071         0.071246         2.195347
 H         1.453850        -1.388304         1.700333
 H         4.245911        -1.372373         1.812868
 H         3.476872        -2.267251         0.549926
 H         5.246601        -0.630990        -0.307088
 H         2.324259         2.042212        -0.929113
 H         3.461664        -0.325085        -2.300165
