19
Iteration:  1393
 C         0.212670         0.460224         0.217015
 C         1.620859         0.017021         0.100939
 C         2.295767        -0.505726         1.479214
 C         3.467547        -1.230592         0.960453
 C         4.104402        -0.353149        -0.108528
 O         3.940595         1.103208         0.140433
 C         2.698908         0.965236        -0.544061
 C         3.093342        -0.259822        -1.330538
 O         1.794099        -0.889811        -1.034386
 H         0.063106         1.239154         1.067331
 H         0.008450         1.049128        -0.645450
 H        -0.502339        -0.392614         0.335185
 H         2.657609         0.444749         1.921731
 H         1.611789        -0.994465         2.185281
 H         4.293873        -1.411588         1.706855
 H         3.058863        -2.201149         0.520344
 H         5.057533        -0.727537        -0.490161
 H         2.383887         2.049021        -0.937300
 H         3.704279        -0.360832        -2.327039
