19
Iteration:  4232
 C         0.231267         0.564213         0.188603
 C         1.650039         0.013036         0.126012
 C         2.314647        -0.514671         1.366499
 C         3.607574        -1.294875         1.052062
 C         4.053436        -0.395577        -0.084180
 O         3.921883         1.023175         0.192098
 C         2.726143         1.049172        -0.496023
 C         2.953929        -0.187064        -1.392868
 O         1.734063        -0.931499        -1.100949
 H        -0.121900         0.950861         1.140746
 H         0.110552         1.323404        -0.567110
 H        -0.296440        -0.417616         0.056729
 H         2.672614         0.357645         1.941965
 H         1.651008        -1.029232         2.061964
 H         4.395641        -1.035108         1.797141
 H         3.595344        -2.291431         0.720780
 H         5.079548        -0.585914        -0.478226
 H         2.338361         2.010535        -0.736049
 H         3.643512        -0.337831        -2.193227
