19
Iteration:  1352charge 0 multiplicity 1
 C         0.105691         0.521000         0.252530
 C         1.586872         0.090012         0.139683
 C         2.177031        -0.606561         1.340145
 C         3.595024        -1.136210         0.959801
 C         4.093008        -0.391991        -0.207888
 O         3.987798         1.036452         0.172556
 C         2.764608         1.041989        -0.589936
 C         3.110730        -0.304728        -1.276766
 O         1.816960        -0.864883        -0.952548
 H         0.079163         1.378951         0.948666
 H        -0.380977         0.781730        -0.708884
 H        -0.356694        -0.364572         0.653705
 H         2.287575         0.082458         2.244691
 H         1.500633        -1.493740         1.441678
 H         4.231929        -1.040416         1.797868
 H         3.694272        -2.248962         0.756645
 H         5.168722        -0.573585        -0.370512
 H         2.444856         1.909299        -1.040944
 H         3.276726        -0.507073        -2.325139
