19
Iteration:  1409charge 0 multiplicity 1
 C         0.199066         0.542853         0.148161
 C         1.618225        -0.021271         0.142220
 C         2.313266        -0.451269         1.429016
 C         3.643316        -1.240145         1.079713
 C         4.134956        -0.452031        -0.188679
 O         3.931353         1.038717         0.193667
 C         2.629357         0.977192        -0.526030
 C         3.051533        -0.220865        -1.310426
 O         1.742491        -0.878387        -1.106654
 H        -0.045238         1.062725         1.037191
 H         0.000367         1.162770        -0.805640
 H        -0.601652        -0.204004         0.149911
 H         2.544244         0.461260         2.085651
 H         1.708383        -1.084186         2.127068
 H         4.368011        -1.210448         1.872618
 H         3.427586        -2.281086         0.714325
 H         5.219533        -0.484883        -0.352031
 H         2.270166         1.892596        -0.860475
 H         3.264945        -0.270303        -2.323556
