19
Iteration:  4643
 C         0.149455         0.518324         0.285554
 C         1.582598         0.141228         0.151112
 C         2.171993        -0.671104         1.346896
 C         3.576186        -1.182004         0.997425
 C         4.110587        -0.433388        -0.185640
 O         4.020674         1.072918         0.154007
 C         2.744488         1.090775        -0.585017
 C         3.107548        -0.269665        -1.278788
 O         1.746151        -0.907055        -1.036844
 H         0.103591         1.408020         0.934184
 H        -0.293863         0.917917        -0.669365
 H        -0.422763        -0.340570         0.783808
 H         2.347761        -0.070761         2.190504
 H         1.473768        -1.518676         1.630166
 H         4.274993        -0.774448         1.714174
 H         3.743858        -2.300873         0.812490
 H         5.126968        -0.688570        -0.376511
 H         2.672655         2.155448        -0.999757
 H         3.403496        -0.542311        -2.347565
