19
Iteration:  1671
 C         0.115115         0.525788         0.129635
 C         1.609018         0.142057         0.131949
 C         2.201175        -0.571670         1.339663
 C         3.583162        -1.232802         0.954862
 C         4.152341        -0.434963        -0.215403
 O         3.930062         1.053309         0.199597
 C         2.743100         1.004368        -0.506483
 C         3.041443        -0.196771        -1.275289
 O         1.838154        -0.929818        -0.902902
 H        -0.079972         1.449126         0.673789
 H        -0.267660         0.626404        -0.931846
 H        -0.333832        -0.263760         0.768947
 H         2.331649         0.272357         2.026877
 H         1.621002        -1.315858         1.853130
 H         4.437065        -0.956252         1.567964
 H         3.524644        -2.357655         0.661353
 H         5.213553        -0.693996        -0.614208
 H         2.514415         2.037020        -0.839635
 H         3.417739        -0.378195        -2.287201
