19
Iteration:  2415
 C         0.155793         0.457644         0.235022
 C         1.632274         0.061538         0.128721
 C         2.240928        -0.604103         1.356150
 C         3.583666        -1.203011         1.003505
 C         4.103796        -0.418695        -0.259578
 O         3.991223         1.019351         0.186207
 C         2.645349         1.057125        -0.489486
 C         3.036156        -0.181239        -1.297126
 O         1.848403        -0.846943        -1.038508
 H         0.201243         1.300529         0.987760
 H        -0.380003         0.875278        -0.552308
 H        -0.349553        -0.360607         0.695599
 H         2.227766         0.136890         2.239764
 H         1.447081        -1.404686         1.663111
 H         4.318681        -1.072268         1.840233
 H         3.560164        -2.290868         0.567877
 H         5.176234        -0.666905        -0.447382
 H         2.314111         1.995292        -0.845802
 H         3.294099        -0.074581        -2.313971
