19
Iteration:  1022charge 0 multiplicity 1
 C         0.181934         0.615648         0.292074
 C         1.576291         0.004713         0.085847
 C         2.229278        -0.705884         1.328257
 C         3.699968        -1.155636         1.117821
 C         4.176943        -0.368366        -0.035148
 O         3.923578         1.127104         0.082206
 C         2.718610         0.989586        -0.598115
 C         3.028189        -0.283441        -1.313396
 O         1.712838        -0.902893        -1.105319
 H         0.182331         1.093388         1.280643
 H         0.159916         1.426738        -0.346311
 H        -0.640097        -0.071818         0.344455
 H         2.215133         0.100123         2.050721
 H         1.592283        -1.573626         1.583324
 H         4.161988        -1.124524         2.037463
 H         3.912290        -2.204847         0.795969
 H         5.231425        -0.547153        -0.249850
 H         2.417525         1.906651        -0.971770
 H         3.261557        -0.523554        -2.363184
