19
Iteration:  2071charge 0 multiplicity 1
 C         0.206643         0.530276         0.332733
 C         1.564601         0.002940         0.011644
 C         2.274730        -0.623301         1.399539
 C         3.738458        -1.170703         1.101353
 C         4.064681        -0.362055        -0.106978
 O         3.941559         1.038461         0.171307
 C         2.712362         0.979887        -0.557337
 C         3.024486        -0.275105        -1.294720
 O         1.700351        -0.804836        -1.180117
 H         0.242427         1.255365         1.101480
 H        -0.127523         1.009595        -0.720216
 H        -0.594381        -0.159346         0.526980
 H         2.346263         0.082192         2.221849
 H         1.630951        -1.491227         1.716944
 H         4.478492        -0.871559         1.929819
 H         3.870136        -2.300671         0.977628
 H         5.135119        -0.455435        -0.494219
 H         2.211121         1.808719        -1.092023
 H         3.515413        -0.370742        -2.339800
