19
Iteration:  3441charge 0 multiplicity 1
 C         0.231100         0.520420         0.298406
 C         1.566295         0.077882         0.122869
 C         2.125307        -0.640656         1.314202
 C         3.526373        -1.203841         0.960325
 C         4.153617        -0.325977        -0.239485
 O         4.005337         1.048788         0.160586
 C         2.697008         1.027447        -0.532246
 C         3.066663        -0.198244        -1.279655
 O         1.856963        -0.953461        -0.955357
 H         0.340439         1.487813         0.940486
 H        -0.217371         0.951351        -0.626114
 H        -0.439485        -0.283832         0.758319
 H         2.031904         0.025190         2.216925
 H         1.509681        -1.609747         1.438237
 H         4.269423        -1.277065         1.817341
 H         3.254680        -2.198371         0.460249
 H         5.321712        -0.533719        -0.268222
 H         2.513562         2.075959        -1.035747
 H         3.241905        -0.021862        -2.389033
