19
Iteration:  4149
 C         0.221033         0.553549         0.270026
 C         1.630771         0.025337         0.142250
 C         2.175173        -0.600746         1.380359
 C         3.639879        -1.126748         1.039285
 C         4.203530        -0.388544        -0.086334
 O         3.985553         1.007345         0.181171
 C         2.646824         0.916561        -0.511199
 C         2.999190        -0.251784        -1.339081
 O         1.708627        -0.830361        -1.221025
 H         0.375310         1.508606         0.860983
 H        -0.320085         0.746125        -0.648828
 H        -0.475870        -0.054910         0.843955
 H         2.368500         0.239214         2.130810
 H         1.704513        -1.425694         1.879672
 H         4.409942        -1.135808         1.877845
 H         3.599040        -2.243911         0.813102
 H         5.239380        -0.539877        -0.430513
 H         2.269103         1.994260        -0.725742
 H         3.537378        -0.226441        -2.388195
