19
Iteration:  4283charge 0 multiplicity 1
 C         0.162961         0.520101         0.283710
 C         1.641639         0.077694         0.104942
 C         2.135835        -0.670666         1.325227
 C         3.501889        -1.289027         1.078773
 C         4.149910        -0.379610        -0.106157
 O         4.104007         1.139477         0.046652
 C         2.703588         1.127550        -0.553505
 C         3.028472        -0.217369        -1.277105
 O         1.820972        -0.919617        -0.976824
 H         0.129565         1.384246         0.913448
 H        -0.277348         0.843739        -0.707122
 H        -0.392203        -0.306675         0.691487
 H         2.102135        -0.108122         2.222374
 H         1.348419        -1.494445         1.473593
 H         4.189057        -1.454947         1.870926
 H         3.364326        -2.242769         0.425539
 H         5.126315        -0.684119        -0.437123
 H         2.427924         1.970016        -1.180242
 H         3.314622        -0.215082        -2.331064
