19
Iteration:  1385
 C         0.214964         0.462477         0.230321
 C         1.644553         0.055662         0.130343
 C         2.232432        -0.478099         1.422708
 C         3.463083        -1.246698         0.953845
 C         4.097799        -0.360382        -0.129203
 O         3.966683         1.094632         0.141937
 C         2.709579         1.008258        -0.593424
 C         3.058202        -0.253958        -1.287775
 O         1.848296        -0.924783        -1.016440
 H         0.062573         1.079001         1.134626
 H        -0.231120         0.939308        -0.697292
 H        -0.459901        -0.352445         0.465764
 H         2.648349         0.342564         2.114147
 H         1.577282        -1.067237         2.131373
 H         4.173739        -1.528514         1.696415
 H         3.154407        -2.146172         0.296523
 H         5.194218        -0.515076        -0.258112
 H         2.464213         1.946634        -0.946432
 H         3.347389        -0.433862        -2.340838
