19
Iteration:  2808
 C         0.230229         0.542032         0.343002
 C         1.589379        -0.027461         0.080653
 C         2.241363        -0.592570         1.342530
 C         3.581947        -1.206521         1.036337
 C         4.156253        -0.383327        -0.162484
 O         3.911028         1.075197         0.198929
 C         2.733570         0.993090        -0.528224
 C         3.084357        -0.259571        -1.259464
 O         1.709619        -0.815544        -1.193610
 H         0.114123         0.952386         1.357338
 H         0.063667         1.154490        -0.455059
 H        -0.454770        -0.266408         0.292937
 H         2.454964         0.326199         1.856809
 H         1.601941        -1.345032         1.954393
 H         4.240138        -0.973634         1.953417
 H         3.510563        -2.271475         0.729298
 H         5.205331        -0.785333        -0.468690
 H         2.434557         1.949039        -0.966175
 H         3.503993        -0.452636        -2.246358
