19
Iteration:  1407
 C         0.192786         0.539020         0.152665
 C         1.619673        -0.031483         0.142904
 C         2.322178        -0.446760         1.442609
 C         3.633077        -1.240384         1.068575
 C         4.123709        -0.447994        -0.187328
 O         3.930141         1.044763         0.188505
 C         2.636682         0.990925        -0.520116
 C         3.079861        -0.226599        -1.312097
 O         1.735341        -0.876159        -1.105891
 H         0.002809         1.105494         1.082634
 H         0.012997         1.130779        -0.811519
 H        -0.577934        -0.229741         0.115319
 H         2.532315         0.532082         2.056521
 H         1.696008        -1.096754         2.124704
 H         4.311511        -1.286896         1.892081
 H         3.421605        -2.340977         0.718751
 H         5.219029        -0.517966        -0.356115
 H         2.164167         1.856507        -0.888012
 H         3.289147        -0.266392        -2.377197
