19
Iteration:  2781charge 0 multiplicity 1
 C         0.166419         0.545576         0.303354
 C         1.628217         0.121473         0.105215
 C         2.180367        -0.641032         1.352542
 C         3.496743        -1.253080         0.991370
 C         4.164796        -0.377225        -0.195607
 O         3.968597         1.077805         0.153022
 C         2.753257         1.055590        -0.561085
 C         3.012294        -0.186297        -1.333443
 O         1.879106        -0.930983        -0.961278
 H         0.000114         1.021558         1.259546
 H        -0.111922         1.081569        -0.702854
 H        -0.388194        -0.441557         0.487489
 H         2.151021        -0.058907         2.346400
 H         1.510967        -1.451120         1.382811
 H         4.162259        -1.169711         1.802005
 H         3.392071        -2.281190         0.616925
 H         5.131861        -0.718308        -0.384235
 H         2.585043         2.025877        -1.076542
 H         3.199163        -0.304903        -2.418733
