19
Iteration:  3715charge 0 multiplicity 1
 C         0.224180         0.542868         0.198776
 C         1.627664         0.085776         0.204699
 C         2.189558        -0.697071         1.299241
 C         3.543399        -1.293965         0.923155
 C         4.159977        -0.349714        -0.128981
 O         3.998475         1.123772         0.088263
 C         2.722094         1.059447        -0.493416
 C         3.056960        -0.212160        -1.244573
 O         1.727363        -0.880595        -0.915732
 H         0.062856         1.216126         1.073996
 H         0.289580         1.144523        -0.656252
 H        -0.570261        -0.179434         0.047834
 H         2.364337        -0.295799         2.248240
 H         1.437661        -1.539069         1.339606
 H         4.219794        -1.427879         1.774475
 H         3.470020        -2.227290         0.267491
 H         5.189628        -0.657564        -0.257170
 H         2.322752         1.895845        -1.081016
 H         3.329781        -0.208620        -2.289955
