19
Iteration:  2407charge 0 multiplicity 1
 C         0.196626         0.486149         0.236028
 C         1.592894         0.045549         0.104155
 C         2.136905        -0.687517         1.387629
 C         3.574508        -1.174327         0.925728
 C         4.091499        -0.445230        -0.272135
 O         4.036208         1.059949         0.186769
 C         2.629432         1.068862        -0.517818
 C         3.079475        -0.137719        -1.306208
 O         1.891489        -0.848710        -0.901799
 H         0.203817         1.296170         0.980258
 H        -0.380506         0.869234        -0.730671
 H        -0.335026        -0.338702         0.681016
 H         2.148982         0.070978         2.249654
 H         1.534265        -1.551332         1.583315
 H         4.351347        -1.138794         1.716782
 H         3.490556        -2.333325         0.621543
 H         5.087195        -0.559334        -0.635219
 H         2.201281         2.033553        -0.975699
 H         3.261292        -0.365975        -2.407150
