19
Iteration:  3628charge 0 multiplicity 1
 C         0.164706         0.524986         0.237918
 C         1.615427         0.123026         0.182000
 C         2.238135        -0.734266         1.387984
 C         3.517106        -1.359795         0.927518
 C         4.174014        -0.333856        -0.142206
 O         4.036433         1.100838         0.124089
 C         2.621849         1.026903        -0.547025
 C         3.098417        -0.228276        -1.243775
 O         1.785042        -0.763981        -1.001295
 H        -0.102041         1.376879         0.845870
 H        -0.130182         0.825243        -0.707140
 H        -0.349421        -0.334291         0.510883
 H         2.443545         0.076849         2.029449
 H         1.430938        -1.404870         1.787712
 H         4.126488        -1.641564         1.812366
 H         3.382558        -2.201705         0.201217
 H         5.210845        -0.600529        -0.368503
 H         2.254089         1.878739        -1.124783
 H         3.453481        -0.353215        -2.248844
