19
Iteration:  1275
 C         0.127172         0.561342         0.262025
 C         1.577616         0.180311         0.096197
 C         2.206295        -0.636658         1.266329
 C         3.605151        -1.228712         0.951764
 C         4.158861        -0.356689        -0.134992
 O         3.954245         1.077227         0.110650
 C         2.703623         1.018253        -0.639822
 C         3.080677        -0.289989        -1.228309
 O         1.856132        -0.917756        -0.855455
 H         0.073302         1.149980         1.242523
 H        -0.215792         1.111613        -0.599723
 H        -0.288518        -0.413866         0.514465
 H         2.227333        -0.155229         2.330987
 H         1.311439        -1.361065         1.353745
 H         4.109617        -1.278908         1.880585
 H         3.419451        -2.202925         0.350904
 H         5.227547        -0.539765        -0.388016
 H         2.414539         1.939582        -1.025807
 H         3.263135        -0.542587        -2.291641
