19
Iteration:  4754charge 0 multiplicity 1
 C         0.203733         0.490749         0.246596
 C         1.575544         0.062551         0.176264
 C         2.155681        -0.655423         1.441602
 C         3.492356        -1.199298         0.968916
 C         4.207535        -0.315597        -0.096435
 O         4.026008         1.114702         0.005786
 C         2.808186         1.070250        -0.587445
 C         3.039050        -0.262991        -1.308680
 O         1.779784        -0.893587        -0.949666
 H         0.062032         0.787577         1.287547
 H        -0.218689         1.250372        -0.385850
 H        -0.365088        -0.466543         0.007081
 H         2.121216        -0.075751         2.335445
 H         1.474404        -1.521936         1.578900
 H         4.180349        -1.271984         1.829799
 H         3.257791        -2.188369         0.492455
 H         5.114411        -0.763013        -0.481061
 H         2.421068         2.056049        -0.899774
 H         3.296948        -0.391474        -2.425583
