19
Iteration:  2046
 C         0.203813         0.588594         0.260137
 C         1.581856         0.058091         0.113495
 C         2.201409        -0.665492         1.344660
 C         3.656327        -1.147164         1.006599
 C         4.189926        -0.380178        -0.210691
 O         3.947036         1.035121         0.196091
 C         2.695453         1.030577        -0.530613
 C         3.036103        -0.225152        -1.344396
 O         1.746932        -0.923129        -1.010964
 H         0.059216         1.431382         0.927449
 H        -0.162270         0.774333        -0.754723
 H        -0.457449        -0.178149         0.628964
 H         2.310768        -0.164088         2.305600
 H         1.616535        -1.518141         1.508005
 H         4.265089        -0.820575         1.871048
 H         3.776725        -2.230039         1.031456
 H         5.247096        -0.552392        -0.422952
 H         2.144682         1.931448        -0.984644
 H         3.332419        -0.349344        -2.416426
