19
Iteration:   620
 C         0.081945         0.368110         0.135613
 C         1.611686         0.159651         0.163295
 C         2.165271        -0.451917         1.362654
 C         3.449977        -1.267905         0.950514
 C         4.124753        -0.437909        -0.278971
 O         4.065035         1.031120         0.071643
 C         2.743896         1.107666        -0.512487
 C         3.105474        -0.178024        -1.294362
 O         1.906222        -0.929800        -0.778199
 H        -0.265975         1.228510         0.800750
 H        -0.116297         0.569291        -0.833820
 H        -0.574125        -0.359650         0.496255
 H         2.444890         0.134322         2.171636
 H         1.455005        -1.188073         1.822797
 H         4.180786        -1.262143         1.766757
 H         3.111158        -2.163847         0.598571
 H         5.193925        -0.733556        -0.413546
 H         2.446325         2.139403        -0.722729
 H         3.214580        -0.351770        -2.366512
