19
Iteration:  3854charge 0 multiplicity 1
 C         0.201485         0.655348         0.149773
 C         1.586315        -0.017251         0.126312
 C         2.322650        -0.629898         1.455267
 C         3.710472        -1.246596         1.002741
 C         4.172287        -0.395899        -0.236677
 O         3.891058         1.009730         0.282251
 C         2.647237         1.021748        -0.528974
 C         3.077130        -0.245955        -1.304654
 O         1.685115        -0.837115        -1.083694
 H        -0.093832         1.046252         1.131265
 H         0.121250         1.378977        -0.613056
 H        -0.640767        -0.078759        -0.101875
 H         2.511243         0.221187         2.165193
 H         1.681798        -1.364037         1.867930
 H         4.495786        -1.154520         1.713551
 H         3.412037        -2.220964         0.771122
 H         5.167999        -0.569571        -0.496420
 H         2.235127         1.977910        -0.925605
 H         3.292504        -0.470885        -2.324586
