19
Iteration:  3582charge 0 multiplicity 1
 C         0.257532         0.620416         0.215155
 C         1.569334         0.027379         0.152722
 C         2.168658        -0.637290         1.390392
 C         3.639155        -1.187389         0.931824
 C         4.122828        -0.439895        -0.263927
 O         3.887405         0.961704         0.218029
 C         2.684963         0.992838        -0.429747
 C         3.071073        -0.145934        -1.350528
 O         1.829775        -0.908342        -1.035851
 H         0.255506         1.501921         0.832149
 H        -0.137864         1.049741        -0.674849
 H        -0.477165        -0.099743         0.635772
 H         2.380556         0.118849         2.183159
 H         1.453092        -1.427276         1.702398
 H         4.354903        -0.714568         1.647759
 H         3.815396        -2.297459         0.845206
 H         5.143467        -0.590429        -0.564524
 H         2.200366         2.042825        -0.525186
 H         3.387913         0.018596        -2.421127
