19
Iteration:   683charge 0 multiplicity 1
 C         0.253149         0.714129         0.357858
 C         1.563209        -0.032456         0.047656
 C         2.179822        -0.617036         1.354243
 C         3.614321        -1.061199         1.077635
 C         4.090997        -0.376176        -0.186145
 O         3.872424         1.013713         0.230831
 C         2.708410         0.988473        -0.576835
 C         3.080436        -0.283461        -1.382740
 O         1.837644        -1.082553        -1.118955
 H         0.412606         1.124785         1.405828
 H         0.173653         1.662688        -0.262736
 H        -0.647768         0.073886         0.292679
 H         2.195420         0.294608         2.028702
 H         1.370893        -1.308811         1.763963
 H         4.405982        -0.722133         1.895802
 H         3.733439        -2.198031         0.974785
 H         5.182415        -0.504359        -0.524810
 H         2.409622         2.013724        -0.898118
 H         3.529235        -0.111348        -2.444943
