19
Iteration:  1623charge 0 multiplicity 1
 C         0.223868         0.590958         0.245088
 C         1.628996         0.019158         0.094670
 C         2.229445        -0.644124         1.362245
 C         3.570302        -1.231811         1.057461
 C         4.109609        -0.380000        -0.080364
 O         3.923309         1.131460         0.114981
 C         2.660453         1.019371        -0.569452
 C         3.080275        -0.346378        -1.248679
 O         1.786837        -0.879329        -1.088536
 H         0.253830         1.135162         1.224102
 H         0.143491         1.312348        -0.583634
 H        -0.639492        -0.052958         0.286373
 H         2.340436         0.102403         2.129976
 H         1.603823        -1.430049         1.823067
 H         4.285040        -0.949656         1.872137
 H         3.781571        -2.229446         0.731541
 H         5.131267        -0.505892        -0.389734
 H         2.201968         1.872514        -1.261689
 H         3.512132        -0.388729        -2.262253
