19
Iteration:  3367
 C         0.170672         0.536533         0.152075
 C         1.593127         0.049091         0.161186
 C         2.222778        -0.609277         1.377865
 C         3.556293        -1.224174         0.947914
 C         4.115727        -0.397039        -0.296356
 O         3.995628         1.001913         0.239826
 C         2.699282         1.087611        -0.476498
 C         3.007826        -0.172956        -1.289283
 O         1.858300        -0.914247        -0.953048
 H         0.127218         1.139633         1.139837
 H        -0.030491         1.044500        -0.812853
 H        -0.675216        -0.126051         0.171641
 H         2.435556         0.063934         2.156108
 H         1.481605        -1.401968         1.706318
 H         4.180093        -0.857479         1.761055
 H         3.640148        -2.271228         0.687407
 H         5.142904        -0.728061        -0.726855
 H         2.431561         2.025457        -0.857167
 H         3.233768        -0.303458        -2.403033
