19
Iteration:   395
 C         0.201990         0.661402         0.233714
 C         1.635970         0.103944         0.126193
 C         2.128392        -0.647127         1.307364
 C         3.681376        -1.012073         1.113675
 C         4.178041        -0.479791        -0.263510
 O         3.912454         0.931201         0.236591
 C         2.675172         1.016019        -0.528390
 C         2.997664        -0.231850        -1.361933
 O         1.826627        -1.020146        -1.000190
 H         0.108522         1.526042         0.787610
 H        -0.010453         1.146589        -0.852431
 H        -0.686476        -0.090596         0.305406
 H         1.986599         0.021393         2.219912
 H         1.659634        -1.581516         1.416267
 H         4.234951        -0.436286         1.863060
 H         4.029907        -2.124427         1.268126
 H         5.199459        -0.606801        -0.544230
 H         2.502967         1.936076        -1.046424
 H         3.181442        -0.078762        -2.393477
