19
Iteration:  3091charge 0 multiplicity 1
 C         0.203363         0.606243         0.178687
 C         1.580178         0.040324         0.141818
 C         2.282897        -0.628929         1.410043
 C         3.699873        -1.172511         0.982165
 C         4.132703        -0.355258        -0.162029
 O         3.915061         0.956671         0.247702
 C         2.684461         1.042749        -0.507108
 C         2.989099        -0.229257        -1.358915
 O         1.747116        -0.921554        -1.076382
 H         0.341303         1.436936         0.894681
 H        -0.196141         1.008688        -0.694923
 H        -0.662474         0.051272         0.456032
 H         2.495788         0.091638         2.148773
 H         1.679079        -1.455070         1.769622
 H         4.440035        -1.112263         1.788770
 H         3.606290        -2.160880         0.603508
 H         5.145167        -0.669180        -0.419784
 H         2.363355         1.986832        -0.816309
 H         3.333449        -0.158592        -2.359257
