19
Iteration:  2865charge 0 multiplicity 1
 C         0.210669         0.528515         0.151941
 C         1.638290         0.095158         0.182340
 C         2.157519        -0.675919         1.385500
 C         3.539368        -1.279423         0.953130
 C         4.152645        -0.314603        -0.195166
 O         4.053887         1.137260         0.148218
 C         2.735876         1.048801        -0.536140
 C         3.006803        -0.128167        -1.343975
 O         1.778315        -0.981665        -0.881016
 H         0.041130         1.287546         0.875439
 H        -0.180565         0.916698        -0.722748
 H        -0.316068        -0.364479         0.307828
 H         2.173605        -0.111345         2.279593
 H         1.403847        -1.460287         1.602575
 H         4.188369        -1.513632         1.805748
 H         3.442378        -2.244223         0.448609
 H         5.110448        -0.863695        -0.486804
 H         2.298097         2.018554        -0.804253
 H         3.251523        -0.212576        -2.419787
