19
Iteration:   181
 C         0.128375         0.493419         0.211663
 C         1.630168         0.125652         0.061754
 C         2.169173        -0.476555         1.415617
 C         3.530272        -1.244824         1.013383
 C         4.102260        -0.383234        -0.181603
 O         3.938759         1.060844         0.198453
 C         2.782989         1.071784        -0.645098
 C         3.092166        -0.293991        -1.386827
 O         1.902372        -0.993039        -0.896856
 H         0.158834         1.303047         1.023237
 H        -0.450701         0.881563        -0.605153
 H        -0.450620        -0.298404         0.664820
 H         2.320936         0.335026         2.112244
 H         1.290785        -1.041728         1.776823
 H         4.182012        -1.292318         1.956920
 H         3.308093        -2.276896         0.626374
 H         5.177062        -0.615709        -0.347612
 H         2.445589         2.000119        -1.079763
 H         3.357788        -0.361810        -2.491880
