19
Iteration:   511
 C         0.185722         0.571851         0.182618
 C         1.585357         0.001352         0.140775
 C         2.216231        -0.659908         1.428392
 C         3.688399        -1.121883         1.149203
 C         4.081380        -0.375567        -0.123141
 O         3.997087         1.055551         0.034555
 C         2.728256         1.001685        -0.536967
 C         3.045316        -0.261718        -1.277591
 O         1.733171        -0.878153        -1.083621
 H         0.076970         1.404359         1.036650
 H         0.128727         1.087337        -0.726496
 H        -0.513520        -0.230642         0.085446
 H         2.012810        -0.051212         2.319054
 H         1.570589        -1.579397         1.479199
 H         4.298405        -0.934260         2.023157
 H         3.699324        -2.158083         1.025339
 H         5.116502        -0.645503        -0.431708
 H         2.259659         1.917677        -0.923981
 H         3.315114        -0.291169        -2.337412
