19
Iteration:  3911charge 0 multiplicity 1
 C         0.164298         0.490821         0.322427
 C         1.650663         0.087001         0.201867
 C         2.116884        -0.685945         1.383682
 C         3.468998        -1.208186         0.991073
 C         4.123356        -0.402826        -0.093702
 O         4.074877         1.077711         0.071355
 C         2.733854         1.055623        -0.558917
 C         3.073756        -0.206180        -1.321979
 O         1.847102        -0.851530        -1.094099
 H         0.039086         1.305699         1.095876
 H        -0.266613         0.937962        -0.620367
 H        -0.319914        -0.441540         0.642604
 H         2.205686         0.032860         2.195411
 H         1.220302        -1.261709         1.722665
 H         4.186423        -1.542502         1.685351
 H         3.354648        -2.212636         0.460527
 H         5.222897        -0.529507        -0.169890
 H         2.344520         2.019779        -1.000380
 H         3.303838        -0.259735        -2.417587
