19
Iteration:   833
 C         0.214672         0.652107         0.285241
 C         1.610933         0.080097         0.153334
 C         2.118867        -0.765516         1.326462
 C         3.591206        -1.122863         1.056408
 C         4.128773        -0.351172        -0.223250
 O         3.998564         1.084462         0.111411
 C         2.668483         1.055402        -0.553024
 C         3.068231        -0.257518        -1.313674
 O         1.850986        -0.997980        -0.957139
 H         0.017054         1.035305         1.281637
 H         0.180804         1.555835        -0.518430
 H        -0.630381        -0.114811         0.002287
 H         1.969701        -0.225216         2.334332
 H         1.513916        -1.673508         1.345449
 H         4.383310        -0.803594         1.806163
 H         3.684012        -2.316625         0.892969
 H         5.055377        -0.735331        -0.629687
 H         2.138187         1.943465        -1.026930
 H         3.302155        -0.308681        -2.404170
