19
Iteration:  4467
 C         0.222252         0.618448         0.273346
 C         1.608682         0.057296         0.200787
 C         2.088200        -0.702329         1.389180
 C         3.496280        -1.160704         0.909262
 C         4.157557        -0.295745        -0.124134
 O         3.989317         1.125175         0.045172
 C         2.695235         1.011306        -0.492707
 C         3.103696        -0.299090        -1.312758
 O         1.873400        -0.989452        -0.976798
 H         0.387537         1.533847         0.907350
 H        -0.125917         0.978889        -0.774238
 H        -0.640854         0.101569         0.706159
 H         2.067972        -0.266468         2.340376
 H         1.417159        -1.597081         1.509728
 H         4.291319        -1.348959         1.567856
 H         3.311888        -2.081898         0.328475
 H         5.137950        -0.577807        -0.311002
 H         2.385143         1.982068        -0.882555
 H         3.521606        -0.417793        -2.273429
