19
Iteration:   678charge 0 multiplicity 1
 C         0.256579         0.685986         0.324095
 C         1.535805        -0.040885         0.040541
 C         2.173718        -0.610315         1.337471
 C         3.639654        -1.072544         1.126076
 C         4.088343        -0.375882        -0.173562
 O         3.878494         0.991056         0.203180
 C         2.705119         0.976831        -0.573449
 C         3.062752        -0.259416        -1.359948
 O         1.838521        -1.024341        -1.124688
 H         0.499038         1.050269         1.304678
 H         0.136463         1.695947        -0.154173
 H        -0.623659         0.026182         0.275288
 H         2.412109         0.298215         1.943043
 H         1.518010        -1.235857         1.911089
 H         4.409865        -0.895146         1.796256
 H         3.764257        -2.154676         1.076457
 H         5.114949        -0.478159        -0.403980
 H         2.342712         1.920338        -0.994947
 H         3.419599        -0.126871        -2.344772
