19
Iteration:  4273
 C         0.076411         0.519891         0.317097
 C         1.611417         0.160543         0.153800
 C         2.099686        -0.654698         1.363702
 C         3.547409        -1.227408         0.951982
 C         4.103582        -0.381378        -0.115334
 O         4.075577         1.088257         0.094381
 C         2.771700         1.052484        -0.627932
 C         3.125046        -0.229095        -1.313625
 O         1.851194        -0.930108        -0.979942
 H        -0.111296         1.249958         1.051805
 H        -0.271970         0.919114        -0.663733
 H        -0.526135        -0.316678         0.673329
 H         2.238077         0.013561         2.176401
 H         1.311629        -1.446639         1.619326
 H         4.204762        -1.279566         1.803127
 H         3.459035        -2.316500         0.514054
 H         5.119643        -0.723238        -0.278592
 H         2.433817         2.041372        -0.794835
 H         3.316253        -0.323967        -2.363452
