19
Iteration:  4525charge 0 multiplicity 1
 C         0.149092         0.523355         0.240892
 C         1.573078        -0.002827         0.129299
 C         2.242504        -0.545429         1.410314
 C         3.630785        -1.223755         1.092762
 C         4.195439        -0.395263        -0.204731
 O         4.005520         1.028421         0.198108
 C         2.670228         0.903568        -0.462095
 C         3.057983        -0.239174        -1.413739
 O         1.704664        -0.794482        -1.131972
 H         0.187308         1.439763         0.814719
 H        -0.143788         0.879382        -0.754853
 H        -0.495932        -0.290154         0.688210
 H         2.446703         0.443500         1.823697
 H         1.455731        -1.081565         2.045074
 H         4.287748        -0.987147         1.919361
 H         3.521790        -2.321881         1.026042
 H         5.294146        -0.734931        -0.453699
 H         2.363024         1.855909        -0.925896
 H         3.504164         0.031439        -2.429334
