19
Iteration:  4058
 C         0.123869         0.560306         0.211542
 C         1.606583         0.046698         0.165067
 C         2.252430        -0.555208         1.413287
 C         3.619106        -1.216610         1.022304
 C         4.188497        -0.436814        -0.219433
 O         3.968500         1.007710         0.168443
 C         2.696394         0.987389        -0.449679
 C         3.057225        -0.188693        -1.355113
 O         1.774521        -0.872268        -1.096235
 H        -0.077644         0.951643         1.184844
 H        -0.114243         1.234088        -0.608661
 H        -0.610851        -0.281828         0.016482
 H         2.328126         0.414356         1.920250
 H         1.636900        -1.200835         1.982667
 H         4.241748        -1.268042         1.931650
 H         3.364126        -2.229318         0.888845
 H         5.199498        -0.675004        -0.561899
 H         2.217162         1.901705        -0.698850
 H         3.416995        -0.153267        -2.342066
