19
Iteration:   862charge 0 multiplicity 1
 C         0.221632         0.599559         0.227073
 C         1.592169         0.045318         0.114471
 C         2.220115        -0.703396         1.352808
 C         3.727517        -1.061814         1.119977
 C         4.164654        -0.432844        -0.212949
 O         3.952634         1.001957         0.198034
 C         2.687025         1.019694        -0.496636
 C         3.013921        -0.254724        -1.352137
 O         1.675615        -0.897756        -1.096891
 H        -0.129111         0.943199         1.194358
 H         0.126970         1.446756        -0.409809
 H        -0.440627        -0.128874        -0.154688
 H         2.187480         0.100063         2.089655
 H         1.600882        -1.585146         1.662992
 H         4.508669        -0.710162         1.846556
 H         3.990604        -2.044495         1.293482
 H         5.153702        -0.698129        -0.628527
 H         2.191716         1.959642        -0.818764
 H         3.245161        -0.268922        -2.399856
