19
Iteration:  1776charge 0 multiplicity 1
 C         0.270076         0.601279         0.155062
 C         1.576699        -0.007544         0.136087
 C         2.269693        -0.635898         1.358918
 C         3.689558        -1.180915         1.111043
 C         4.168908        -0.382503        -0.115831
 O         3.889547         1.046956         0.087626
 C         2.641967         0.979839        -0.465552
 C         3.014275        -0.217962        -1.275041
 O         1.710753        -0.896873        -1.080724
 H         0.107217         1.092451         1.098441
 H         0.077904         1.402478        -0.653092
 H        -0.441870        -0.136441        -0.074479
 H         2.397156         0.220508         2.067426
 H         1.540793        -1.344532         1.923133
 H         4.529950        -1.163192         1.828508
 H         3.723913        -2.193333         0.745561
 H         5.147329        -0.692217        -0.452731
 H         2.413725         1.991418        -0.788320
 H         3.333603        -0.230237        -2.335297
