19
Iteration:  1462
 C         0.203904         0.593072         0.259943
 C         1.653147         0.057692         0.193051
 C         2.077889        -0.762471         1.328483
 C         3.562517        -1.179548         1.097394
 C         4.121210        -0.335889        -0.092694
 O         4.028331         1.112388        -0.017562
 C         2.733303         1.039825        -0.586195
 C         3.068169        -0.259665        -1.266625
 O         1.807024        -0.917090        -1.021719
 H        -0.006152         1.358621         1.025178
 H        -0.229388         1.147935        -0.673312
 H        -0.444496        -0.228603         0.538171
 H         2.112134        -0.134589         2.322135
 H         1.426935        -1.671225         1.476838
 H         4.076762        -1.081461         2.028197
 H         3.768132        -2.179225         0.516486
 H         5.218368        -0.503350        -0.228718
 H         2.337829         1.893476        -0.959549
 H         3.353222        -0.333272        -2.294844
