19
Iteration:   904
 C         0.146474         0.426614         0.302934
 C         1.637448         0.118325         0.139720
 C         2.164753        -0.475606         1.353119
 C         3.423142        -1.272855         0.895882
 C         4.178650        -0.328698        -0.172581
 O         4.014092         1.090315         0.155626
 C         2.710974         1.059207        -0.566301
 C         3.090792        -0.254388        -1.351451
 O         1.878826        -0.942035        -0.924393
 H        -0.007929         1.092420         1.250230
 H        -0.286744         0.862123        -0.536690
 H        -0.276283        -0.523748         0.572822
 H         2.435303         0.210686         2.103607
 H         1.402946        -1.216805         1.727507
 H         4.032310        -1.539887         1.799993
 H         3.141176        -2.293484         0.434511
 H         5.228568        -0.641446        -0.461708
 H         2.426834         1.978021        -1.081863
 H         3.412624        -0.338203        -2.395216
