19
Iteration:  4736charge 0 multiplicity 1
 C         0.160126         0.533874         0.240775
 C         1.604896         0.086811         0.146576
 C         2.226511        -0.655439         1.395603
 C         3.646634        -1.298897         1.013754
 C         4.070069        -0.391320        -0.185232
 O         4.010079         1.146820         0.142614
 C         2.669920         1.054335        -0.572999
 C         3.049274        -0.288484        -1.304076
 O         1.792088        -0.869753        -0.994873
 H        -0.107665         1.342783         1.006686
 H         0.037901         1.113340        -0.713782
 H        -0.573928        -0.300225         0.241839
 H         2.481768         0.198963         2.139312
 H         1.469743        -1.269420         1.858072
 H         4.362558        -1.355613         1.860562
 H         3.448019        -2.261790         0.623007
 H         5.173933        -0.609059        -0.389204
 H         2.326916         1.849983        -1.195155
 H         3.434018        -0.402383        -2.278654
