19
Iteration:  1079
 C         0.133208         0.401012         0.180873
 C         1.624077         0.104043         0.159196
 C         2.123373        -0.450955         1.407383
 C         3.426134        -1.285002         0.965339
 C         4.129653        -0.375330        -0.247104
 O         4.117163         1.057406         0.064489
 C         2.677923         1.040856        -0.479439
 C         3.039978        -0.159266        -1.308880
 O         1.917771        -0.925639        -0.862339
 H         0.040754         1.213794         0.988874
 H        -0.302797         0.519987        -0.766732
 H        -0.319411        -0.552703         0.257154
 H         2.596188         0.188338         2.156374
 H         1.369554        -1.046185         1.981849
 H         4.199095        -1.425198         1.674947
 H         3.244161        -2.267618         0.386169
 H         5.198435        -0.708636        -0.486165
 H         2.382710         2.055045        -0.794440
 H         3.203885        -0.157909        -2.429350
