19
Iteration:   915charge 0 multiplicity 1
 C         0.173647         0.407369         0.283578
 C         1.607616         0.160416         0.075337
 C         2.258802        -0.439318         1.386092
 C         3.423885        -1.249461         0.834736
 C         4.043078        -0.389334        -0.190360
 O         3.984531         1.057659         0.203187
 C         2.737872         1.044320        -0.560050
 C         3.066537        -0.211718        -1.282271
 O         1.952706        -0.989396        -0.931835
 H         0.142731         1.337002         1.077473
 H        -0.398336         0.687959        -0.532661
 H        -0.385184        -0.420782         0.675443
 H         2.341625         0.309970         2.116250
 H         1.491729        -1.153524         1.826183
 H         4.254740        -1.395293         1.579443
 H         3.007535        -2.242605         0.351163
 H         5.160490        -0.585948        -0.368393
 H         2.424668         2.025718        -0.951140
 H         3.251445        -0.294630        -2.350828
