19
Iteration:  2562
 C         0.153946         0.510663         0.393175
 C         1.593041         0.090195         0.068606
 C         2.172241        -0.601220         1.321991
 C         3.537542        -1.258975         0.889342
 C         4.171994        -0.387463        -0.100157
 O         3.966923         1.094586         0.170697
 C         2.701184         1.053104        -0.545707
 C         3.072318        -0.151633        -1.346987
 O         1.882870        -0.975725        -1.051345
 H         0.200391         1.259887         1.097662
 H        -0.552670         0.731377        -0.411129
 H        -0.291626        -0.335256         0.903882
 H         2.274249         0.161185         2.159373
 H         1.389409        -1.202015         1.714301
 H         4.294017        -1.241119         1.726098
 H         3.363501        -2.373943         0.668879
 H         5.176027        -0.581240        -0.279752
 H         2.465187         2.121501        -0.871472
 H         3.278661        -0.270080        -2.459422
