19
Iteration:  4245charge 0 multiplicity 1
 C         0.219177         0.474701         0.229815
 C         1.625408         0.086241         0.043457
 C         2.250242        -0.480972         1.336717
 C         3.646830        -1.195905         1.010220
 C         4.127652        -0.437852        -0.194385
 O         3.952615         0.985539         0.282011
 C         2.684584         1.003935        -0.551906
 C         3.046745        -0.223596        -1.304399
 O         1.732541        -0.880731        -1.027203
 H         0.170771         1.015708         1.229407
 H        -0.103186         1.136187        -0.581122
 H        -0.597257        -0.295779         0.110900
 H         2.353674         0.444793         1.985412
 H         1.530858        -1.149598         1.749533
 H         4.332914        -1.314579         1.895654
 H         3.404571        -2.200348         0.808725
 H         5.177064        -0.666551        -0.503594
 H         2.405463         2.046732        -0.857778
 H         3.171824        -0.188121        -2.419211
