19
Iteration:   716charge 0 multiplicity 1
 C         0.215612         0.638186         0.229475
 C         1.645786         0.079816         0.098889
 C         2.159944        -0.775570         1.348497
 C         3.643585        -1.243249         1.006407
 C         4.140837        -0.316145        -0.080209
 O         3.926414         1.116212         0.049441
 C         2.712019         1.017313        -0.633649
 C         3.081446        -0.294765        -1.237908
 O         1.751528        -0.890501        -0.901596
 H         0.183876         1.397724         1.087603
 H        -0.086104         1.070863        -0.715324
 H        -0.597864        -0.047699         0.508890
 H         2.067571        -0.128382         2.241994
 H         1.397378        -1.617506         1.461740
 H         4.164327        -1.201344         2.021352
 H         3.661868        -2.232298         0.471858
 H         5.206619        -0.556485        -0.431792
 H         2.541103         1.981478        -1.127597
 H         3.439185        -0.315644        -2.333153
