19
Iteration:  1920charge 0 multiplicity 1
 C         0.185163         0.587536         0.202852
 C         1.610409         0.037177         0.162256
 C         2.169921        -0.780984         1.347223
 C         3.653893        -1.195249         1.042352
 C         4.220643        -0.303147        -0.045896
 O         4.067240         1.144551         0.021323
 C         2.687808         0.995878        -0.520361
 C         2.951659        -0.259665        -1.276141
 O         1.719904        -0.844757        -1.006394
 H        -0.077276         1.172840         1.080092
 H        -0.149741         1.172040        -0.761149
 H        -0.415726        -0.335045         0.153066
 H         2.153683        -0.068465         2.195111
 H         1.500560        -1.705129         1.646116
 H         4.196399        -1.392177         1.979699
 H         3.599147        -2.233534         0.620660
 H         5.099500        -0.858806        -0.477732
 H         2.424597         1.979001        -0.974579
 H         3.340156        -0.269496        -2.320088
