19
Iteration:   691charge 0 multiplicity 1
 C         0.262835         0.748928         0.396751
 C         1.646123         0.015074         0.070144
 C         2.152231        -0.603934         1.350065
 C         3.604964        -1.093322         1.010196
 C         4.131478        -0.373117        -0.200431
 O         3.874686         1.068605         0.245427
 C         2.669434         0.966439        -0.577960
 C         3.088754        -0.290603        -1.384865
 O         1.850227        -1.104515        -1.091140
 H         0.185756         1.136440         1.357798
 H         0.108253         1.461344        -0.516304
 H        -0.711042         0.149547         0.345047
 H         1.907493         0.106526         2.224917
 H         1.554224        -1.486298         1.505689
 H         4.090018        -0.667384         1.840069
 H         3.613935        -2.230487         0.890702
 H         5.140677        -0.638408        -0.495151
 H         2.386929         2.003220        -0.844497
 H         3.473403        -0.475377        -2.419397
