19
Iteration:  2173
 C         0.164221         0.499082         0.260415
 C         1.570831         0.050990         0.161259
 C         2.256776        -0.587083         1.390050
 C         3.586828        -1.204470         0.983843
 C         4.152668        -0.422569        -0.235454
 O         3.985539         1.023645         0.192914
 C         2.693224         1.012244        -0.522711
 C         2.965743        -0.173941        -1.392180
 O         1.859205        -0.902172        -1.025243
 H         0.151762         1.373005         1.100222
 H        -0.272191         0.906276        -0.624948
 H        -0.601774        -0.315450         0.645199
 H         2.182872         0.383805         1.990960
 H         1.486928        -1.330022         1.819166
 H         4.354755        -0.813393         1.681501
 H         3.545158        -2.363082         0.903844
 H         5.209527        -0.412705        -0.549249
 H         2.434174         1.990985        -0.712076
 H         3.328781        -0.232312        -2.355611
