19
Iteration:  3474
 C         0.178372         0.554317         0.069737
 C         1.563953         0.070735         0.151876
 C         2.371934        -0.632335         1.437387
 C         3.710538        -1.267138         1.039392
 C         4.101276        -0.364929        -0.194898
 O         3.949078         0.989074         0.233346
 C         2.679566         1.046326        -0.493491
 C         2.979817        -0.205216        -1.273667
 O         1.684987        -0.851693        -1.086326
 H         0.085398         1.263267         1.008101
 H         0.068374         1.019664        -0.941758
 H        -0.467142        -0.349551         0.246535
 H         2.463017         0.223493         2.160065
 H         1.670088        -1.355935         2.019942
 H         4.571631        -1.376865         1.775468
 H         3.570508        -2.369320         0.692931
 H         5.250839        -0.413071        -0.504897
 H         2.454013         2.152047        -0.922361
 H         3.171851        -0.186935        -2.392938
