19
Iteration:   245charge 0 multiplicity 1
 C         0.230846         0.590098         0.193038
 C         1.631650         0.157607         0.126549
 C         2.100717        -0.671557         1.308775
 C         3.578367        -1.068332         1.049253
 C         4.076816        -0.395517        -0.190211
 O         3.934331         1.035080         0.109885
 C         2.693994         1.001864        -0.552855
 C         3.058143        -0.312631        -1.277523
 O         1.897938        -0.971791        -0.899342
 H         0.271024         1.383600         0.895528
 H        -0.095883         1.080430        -0.781150
 H        -0.547554        -0.139827         0.485776
 H         2.082027        -0.221870         2.293162
 H         1.411492        -1.528944         1.233028
 H         4.305782        -0.747048         1.832405
 H         3.787109        -2.107444         0.993417
 H         5.166595        -0.651143        -0.511842
 H         2.521770         1.979376        -0.977933
 H         3.351072        -0.453131        -2.384597
