19
Iteration:  1281
 C         0.111986         0.609976         0.285795
 C         1.646720         0.189632         0.071976
 C         2.164891        -0.670655         1.287028
 C         3.596041        -1.193489         0.951486
 C         4.170576        -0.330739        -0.141424
 O         3.961863         1.081571         0.148189
 C         2.685554         0.966616        -0.600675
 C         3.019529        -0.291047        -1.303503
 O         1.860942        -0.966819        -0.862055
 H         0.086948         1.284537         1.126137
 H        -0.277299         1.203577        -0.572532
 H        -0.469287        -0.337166         0.447688
 H         2.122730        -0.135757         2.184550
 H         1.577070        -1.565650         1.243537
 H         4.379532        -1.226821         1.802675
 H         3.591215        -2.239017         0.707285
 H         5.212989        -0.506903        -0.379728
 H         2.555505         2.045344        -1.039102
 H         3.329194        -0.491979        -2.375389
