19
Iteration:  2101charge 0 multiplicity 1
 C         0.198464         0.487316         0.362119
 C         1.614309         0.070688         0.079858
 C         2.144624        -0.551648         1.318039
 C         3.573412        -1.189751         0.964101
 C         4.113266        -0.346678        -0.170167
 O         3.961682         1.071240         0.120269
 C         2.738373         0.991966        -0.505988
 C         3.036493        -0.266632        -1.322790
 O         1.880828        -0.906801        -0.984371
 H         0.106819         1.046634         1.251180
 H        -0.219624         1.125834        -0.444718
 H        -0.480113        -0.328290         0.325657
 H         2.268392         0.056627         2.217856
 H         1.493515        -1.351826         1.541907
 H         4.225898        -1.140407         1.846196
 H         3.357586        -2.151304         0.561852
 H         5.159745        -0.590441        -0.406274
 H         2.231686         1.905407        -1.024259
 H         3.370117        -0.317506        -2.418737
