19
Iteration:  2179charge 0 multiplicity 1
 C         0.167762         0.472429         0.335470
 C         1.579638         0.092690         0.109489
 C         2.178321        -0.609078         1.342267
 C         3.558017        -1.196398         0.943819
 C         4.199215        -0.382002        -0.230231
 O         4.008897         1.016189         0.169339
 C         2.666670         1.030473        -0.543537
 C         3.010294        -0.211984        -1.353615
 O         1.849973        -0.894481        -0.987917
 H         0.212816         1.316201         0.953065
 H        -0.255161         0.994365        -0.576703
 H        -0.431325        -0.282189         0.719051
 H         2.273835         0.117627         2.163491
 H         1.568755        -1.386984         1.758370
 H         4.182152        -0.805046         1.768068
 H         3.490156        -2.262797         1.018017
 H         5.284208        -0.513160        -0.449606
 H         2.170280         2.072538        -0.754508
 H         3.461980        -0.327920        -2.423287
