19
Iteration:   797
 C         0.198388         0.488457         0.277817
 C         1.648986         0.035140         0.143876
 C         2.236707        -0.554581         1.374068
 C         3.548951        -1.277049         0.944253
 C         4.183139        -0.321571        -0.091682
 O         3.959671         1.079062         0.154881
 C         2.639598         1.006693        -0.621484
 C         3.117633        -0.286602        -1.293608
 O         1.745133        -0.833558        -1.026493
 H         0.095317         1.382632         0.975068
 H        -0.185406         0.837769        -0.738900
 H        -0.438943        -0.328628         0.611865
 H         2.342557         0.336413         2.055154
 H         1.597774        -1.318286         1.897228
 H         4.177889        -1.623093         1.873630
 H         3.109860        -2.168416         0.415231
 H         5.261895        -0.489730        -0.257019
 H         2.456107         2.018282        -1.068545
 H         3.442281        -0.430480        -2.289975
