19
Iteration:  2872
 C         0.220285         0.557017         0.158382
 C         1.627574         0.053277         0.115130
 C         2.171482        -0.706627         1.411924
 C         3.547135        -1.269817         0.969622
 C         4.183596        -0.334163        -0.162778
 O         4.057128         1.118631         0.085638
 C         2.711104         1.108206        -0.462607
 C         2.996186        -0.171828        -1.301476
 O         1.769168        -0.970339        -0.927923
 H        -0.240358         1.314934         0.889120
 H        -0.153993         0.865082        -0.875139
 H        -0.382740        -0.344679         0.503516
 H         2.256184        -0.013235         2.305065
 H         1.325979        -1.490401         1.651275
 H         4.269437        -1.557911         1.875863
 H         3.295282        -2.220643         0.418292
 H         5.211527        -0.425204        -0.581144
 H         2.485560         2.131717        -0.760898
 H         3.246719        -0.234840        -2.357624
