19
Iteration:     8charge 0 multiplicity 1
 C         0.149367         0.580017         0.172136
 C         1.622430         0.091521         0.104939
 C         2.209923        -0.497111         1.370802
 C         3.569481        -1.182916         1.009445
 C         4.135796        -0.485557        -0.167006
 O         3.933411         1.043297         0.187694
 C         2.734945         0.949350        -0.524919
 C         3.076066        -0.230973        -1.358853
 O         1.860839        -0.934118        -0.939785
 H        -0.070279         1.458430         0.884837
 H        -0.121308         0.927145        -0.785493
 H        -0.510944        -0.212666         0.422037
 H         2.338600         0.386230         2.079668
 H         1.382488        -1.201450         1.766794
 H         4.210507        -1.006769         1.831218
 H         3.527970        -2.318016         0.904661
 H         5.133127        -0.677470        -0.538208
 H         2.345273         1.946364        -1.065977
 H         3.102479        -0.516291        -2.413289
