19
Iteration:  3398charge 0 multiplicity 1
 C         0.200334         0.551692         0.270767
 C         1.624836         0.029894         0.084447
 C         2.265322        -0.624251         1.369520
 C         3.622641        -1.226281         1.008693
 C         4.196551        -0.371940        -0.082775
 O         3.892420         1.031824         0.225989
 C         2.661954         0.970988        -0.606076
 C         3.046266        -0.225162        -1.270350
 O         1.736117        -0.807910        -1.110008
 H         0.441380         1.424408         0.968141
 H        -0.156805         1.130788        -0.575170
 H        -0.376749        -0.278642         0.650431
 H         2.410899         0.082723         2.180912
 H         1.470086        -1.406796         1.647103
 H         4.241021        -1.271407         1.946895
 H         3.620229        -2.279965         0.603783
 H         5.186661        -0.530951        -0.670589
 H         2.340629         1.846774        -1.211217
 H         3.362297        -0.329969        -2.358012
