19
Iteration:  2017charge 0 multiplicity 1
 C         0.213225         0.557284         0.226201
 C         1.586487         0.046215         0.145558
 C         2.157779        -0.666958         1.412553
 C         3.516391        -1.179155         0.938462
 C         4.155834        -0.401101        -0.213609
 O         3.989746         1.120587         0.076454
 C         2.699978         1.112365        -0.490614
 C         3.027106        -0.182583        -1.298510
 O         1.887362        -0.973661        -0.921951
 H         0.057817         1.436238         0.835348
 H        -0.051362         0.830960        -0.909107
 H        -0.378137        -0.261565         0.645716
 H         2.329219        -0.113273         2.337436
 H         1.533416        -1.602176         1.678590
 H         4.181569        -1.545130         1.771322
 H         3.322767        -2.204692         0.468905
 H         5.254820        -0.525815        -0.476583
 H         2.078960         1.905199        -0.775902
 H         3.376248        -0.469061        -2.359258
