19
Iteration:  2005
 C         0.167646         0.523689         0.212710
 C         1.650984         0.040924         0.207619
 C         2.248856        -0.609598         1.470841
 C         3.528474        -1.316785         0.915513
 C         4.179413        -0.318015        -0.121834
 O         3.978420         1.133696         0.070298
 C         2.635961         0.971126        -0.523171
 C         3.064297        -0.212453        -1.314719
 O         1.803911        -0.895444        -0.989700
 H         0.059271         1.414219         0.794419
 H        -0.078500         0.832276        -0.907142
 H        -0.617765        -0.190435         0.389849
 H         2.306727         0.157336         2.241549
 H         1.510107        -1.383091         1.810288
 H         4.271847        -1.384412         1.755371
 H         3.265253        -2.274435         0.385825
 H         5.262360        -0.525245        -0.341373
 H         2.473161         1.960090        -0.816726
 H         3.341303        -0.136506        -2.434836
