19
Iteration:  3001charge 0 multiplicity 1
 C         0.125395         0.577026         0.190435
 C         1.622128         0.103292         0.200805
 C         2.273816        -0.595771         1.391825
 C         3.646365        -1.153829         1.005341
 C         4.135777        -0.422039        -0.291452
 O         3.951696         0.919124         0.310632
 C         2.695252         1.059454        -0.521176
 C         2.984765        -0.192387        -1.439043
 O         1.814366        -0.931021        -1.005134
 H        -0.165531         1.245298         0.956927
 H        -0.246784         1.144277        -0.735061
 H        -0.412142        -0.395178        -0.054307
 H         2.350815         0.194712         2.193131
 H         1.611521        -1.367374         1.672454
 H         4.395011        -0.920787         1.726935
 H         3.551767        -2.214631         0.850124
 H         5.183859        -0.581158        -0.536628
 H         2.542174         2.181803        -0.559504
 H         3.147590        -0.383858        -2.510115
