19
Iteration:  3058
 C         0.192321         0.493810         0.325302
 C         1.629235         0.100191         0.126101
 C         2.143416        -0.633422         1.360119
 C         3.489846        -1.221595         0.910915
 C         4.159180        -0.389694        -0.120071
 O         3.963152         1.089031         0.120304
 C         2.664437         1.058392        -0.639592
 C         3.120043        -0.238154        -1.258131
 O         1.867696        -0.871898        -0.985182
 H         0.401076         1.165837         1.170814
 H        -0.214613         0.994769        -0.516819
 H        -0.307674        -0.246920         0.907255
 H         2.214726        -0.111670         2.284985
 H         1.340523        -1.350098         1.540543
 H         4.147392        -1.618172         1.695122
 H         3.254375        -2.105549         0.341028
 H         5.182648        -0.644960        -0.389955
 H         2.459354         1.983161        -1.066796
 H         3.465197        -0.341453        -2.258573
