19
Iteration:  4056charge 0 multiplicity 1
 C         0.135997         0.556744         0.212052
 C         1.603047         0.029667         0.163035
 C         2.243906        -0.539304         1.404411
 C         3.622456        -1.190293         1.036215
 C         4.190175        -0.447568        -0.235987
 O         3.968558         1.014390         0.202360
 C         2.715407         0.970872        -0.467092
 C         3.030004        -0.184545        -1.382617
 O         1.771690        -0.868467        -1.097089
 H        -0.057150         0.964030         1.225713
 H        -0.194961         1.309918        -0.591087
 H        -0.545416        -0.329640         0.013349
 H         2.331903         0.362690         1.999945
 H         1.609170        -1.217264         2.042074
 H         4.215880        -1.263169         1.916139
 H         3.424440        -2.264866         0.871712
 H         5.234907        -0.735968        -0.538798
 H         2.228511         1.873448        -0.702605
 H         3.435633        -0.154238        -2.357381
