19
Iteration:  3372
 C         0.152638         0.549207         0.194661
 C         1.637343         0.067248         0.135685
 C         2.241963        -0.636672         1.342187
 C         3.565716        -1.206711         0.954189
 C         4.117706        -0.385286        -0.284747
 O         3.947757         1.001848         0.258544
 C         2.721848         1.113113        -0.428946
 C         3.033567        -0.264633        -1.330264
 O         1.816274        -0.931238        -0.987499
 H         0.114485         1.278157         0.965106
 H         0.076673         1.144474        -0.743661
 H        -0.627629        -0.283908         0.218906
 H         2.460071         0.199809         2.120054
 H         1.548081        -1.337812         1.718032
 H         4.248999        -0.884384         1.762941
 H         3.535612        -2.329397         0.901734
 H         5.065437        -0.462032        -0.709905
 H         2.512050         2.188711        -0.863604
 H         3.208273        -0.258129        -2.367252
