19
Iteration:  3595
 C         0.183308         0.629322         0.197235
 C         1.661802         0.037677         0.149504
 C         2.186299        -0.714194         1.354856
 C         3.589451        -1.167998         0.934837
 C         4.104693        -0.319097        -0.261364
 O         4.042751         0.989666         0.264671
 C         2.603950         1.041291        -0.489531
 C         2.985436        -0.149519        -1.338920
 O         1.854006        -0.945572        -0.968022
 H         0.279064         1.474637         0.847394
 H        -0.030739         0.796561        -0.794093
 H        -0.548785        -0.009372         0.596396
 H         2.240800        -0.058844         2.218943
 H         1.533747        -1.575941         1.740629
 H         4.287641        -1.277232         1.786977
 H         3.397731        -2.245154         0.616583
 H         5.071588        -0.688181        -0.643493
 H         2.442279         2.031803        -0.943198
 H         3.218936        -0.216293        -2.399477
