19
Iteration:  1893charge 0 multiplicity 1
 C         0.203900         0.636431         0.200928
 C         1.646103         0.056494         0.119679
 C         2.219015        -0.696262         1.343276
 C         3.657837        -1.152585         0.957658
 C         4.090601        -0.368282        -0.220831
 O         3.920034         1.031917         0.281676
 C         2.667046         0.994930        -0.536091
 C         2.980822        -0.243835        -1.359288
 O         1.848581        -0.918295        -0.950304
 H         0.213673         1.456252         0.964344
 H        -0.059214         1.107947        -0.733986
 H        -0.559380        -0.162393         0.321609
 H         2.220487         0.034787         2.176579
 H         1.587711        -1.502041         1.597555
 H         4.331389        -0.855264         1.807585
 H         3.658930        -2.235373         0.901536
 H         4.946469        -0.792361        -0.684118
 H         2.402207         1.933428        -1.014919
 H         3.392055        -0.300525        -2.368718
