19
Iteration:  4409
 C         0.133882         0.429398         0.208152
 C         1.592024         0.146107         0.093760
 C         2.183777        -0.491674         1.392219
 C         3.579730        -1.140671         0.976046
 C         4.123010        -0.461995        -0.214307
 O         4.016017         0.990688         0.251721
 C         2.804018         1.058948        -0.522645
 C         3.025445        -0.208930        -1.335798
 O         1.761812        -0.903893        -0.999477
 H        -0.098717         0.848299         1.279920
 H        -0.299220         1.089289        -0.576264
 H        -0.364165        -0.586430         0.218027
 H         2.392673         0.332224         2.176194
 H         1.604488        -1.316739         1.794775
 H         4.568224        -1.259008         1.648873
 H         3.364434        -2.180356         0.706384
 H         5.146242        -0.664372        -0.604010
 H         2.773580         2.034651        -1.072263
 H         3.179796        -0.430021        -2.445586
