19
Iteration:   219charge 0 multiplicity 1
 C         0.231025         0.632648         0.198654
 C         1.575117        -0.036365         0.063142
 C         2.220993        -0.598013         1.436450
 C         3.669611        -1.162313         1.185495
 C         4.181091        -0.311937        -0.055815
 O         3.935990         1.107915         0.158545
 C         2.648774         0.893774        -0.561802
 C         3.041312        -0.335931        -1.340685
 O         1.710266        -0.919638        -1.195619
 H         0.471407         1.478047         0.916971
 H        -0.034372         1.128141        -0.795863
 H        -0.612019         0.002461         0.607835
 H         2.450155         0.332810         2.029897
 H         1.576945        -1.241485         2.037577
 H         4.358161        -1.216052         1.989534
 H         3.669661        -2.189386         0.744515
 H         5.173688        -0.460756        -0.453572
 H         2.401015         1.897878        -0.950873
 H         3.399331        -0.504058        -2.316125
