19
Iteration:   465
 C         0.128142         0.430799         0.178234
 C         1.609386         0.099945         0.119512
 C         2.250146        -0.404123         1.403728
 C         3.490566        -1.200334         0.967880
 C         4.116529        -0.438145        -0.183348
 O         3.971581         1.028730         0.172514
 C         2.705541         1.049715        -0.548940
 C         3.051786        -0.221688        -1.308421
 O         1.912182        -0.948400        -0.940142
 H         0.046115         1.310921         0.925907
 H        -0.271992         0.797734        -0.791990
 H        -0.378733        -0.493262         0.409263
 H         2.520392         0.396579         2.053053
 H         1.475537        -1.098162         1.886893
 H         4.212629        -1.598190         1.710643
 H         3.005796        -2.033136         0.547196
 H         5.201976        -0.754293        -0.417381
 H         2.436818         2.088843        -0.867504
 H         3.407218        -0.467954        -2.386570
