19
Iteration:  4236charge 0 multiplicity 1
 C         0.244578         0.528392         0.203281
 C         1.620372         0.035820         0.095681
 C         2.304678        -0.490701         1.337354
 C         3.640840        -1.272691         1.039885
 C         4.064704        -0.408283        -0.093853
 O         3.932113         1.008013         0.226962
 C         2.732169         1.024515        -0.529182
 C         2.954042        -0.181858        -1.377764
 O         1.718095        -0.928494        -1.071622
 H        -0.047466         1.034642         1.204658
 H         0.054124         1.297758        -0.583363
 H        -0.316611        -0.421329         0.021667
 H         2.556956         0.429886         1.965425
 H         1.569424        -1.002211         1.947550
 H         4.443208        -1.103539         1.806423
 H         3.543533        -2.344986         0.739537
 H         5.076903        -0.631233        -0.462977
 H         2.264113         2.079282        -0.678482
 H         3.724982        -0.211406        -2.225342
