19
Iteration:  2156
 C         0.185786         0.488102         0.191023
 C         1.625863         0.016786         0.096265
 C         2.300731        -0.541102         1.454198
 C         3.679158        -1.177323         0.981987
 C         4.087929        -0.389626        -0.240113
 O         3.953246         0.989562         0.201916
 C         2.657100         1.054993        -0.463544
 C         3.009496        -0.188303        -1.301741
 O         1.737451        -0.907412        -1.051523
 H         0.013862         1.327549         0.817883
 H         0.052406         1.030233        -0.780927
 H        -0.459146        -0.335051         0.283794
 H         2.706572         0.149649         2.191652
 H         1.816349        -1.216638         2.087458
 H         4.380760        -1.200580         1.822423
 H         3.414501        -2.151501         0.694109
 H         5.042256        -0.785900        -0.588716
 H         2.084880         2.036136        -0.800815
 H         3.356606        -0.106409        -2.421724
