19
Iteration:   271charge 0 multiplicity 1
 C         0.114094         0.506013         0.133667
 C         1.595743         0.089236         0.167944
 C         2.113393        -0.666256         1.385307
 C         3.549852        -1.125020         1.058305
 C         4.155670        -0.407151        -0.159334
 O         4.087992         1.131212         0.040589
 C         2.801104         1.010445        -0.566336
 C         3.040077        -0.259603        -1.278206
 O         1.783232        -0.925142        -0.895248
 H        -0.199145         1.346371         0.939547
 H        -0.137617         0.888363        -0.807997
 H        -0.593231        -0.306579         0.203465
 H         2.158953        -0.009492         2.269044
 H         1.413467        -1.539470         1.494610
 H         4.332846        -1.021956         1.857211
 H         3.725980        -2.285277         0.814863
 H         5.201055        -0.662005        -0.333955
 H         2.551260         2.042287        -0.965318
 H         3.188660        -0.291146        -2.363452
