19
Iteration:   977
 C         0.172121         0.615835         0.282135
 C         1.606946         0.039099         0.110506
 C         2.109740        -0.763636         1.319141
 C         3.645674        -1.125161         1.077084
 C         4.125381        -0.335411        -0.206771
 O         4.020488         1.062476         0.121406
 C         2.702380         1.038340        -0.558817
 C         2.989324        -0.253684        -1.339333
 O         1.830891        -0.928376        -0.966599
 H         0.263562         1.521574         0.835502
 H        -0.089502         0.932439        -0.717140
 H        -0.511181        -0.087983         0.800115
 H         2.029179        -0.295579         2.302678
 H         1.508315        -1.658973         1.160107
 H         4.313900        -0.828050         1.806870
 H         3.804994        -2.195268         1.165816
 H         5.144666        -0.542817        -0.463043
 H         2.362698         1.992282        -0.862360
 H         3.349501        -0.341071        -2.386773
