19
Iteration:  1332
 C         0.238209         0.573068         0.222200
 C         1.621415        -0.006567         0.128499
 C         2.205050        -0.674623         1.394287
 C         3.691707        -1.127516         1.194350
 C         4.169619        -0.395599        -0.132004
 O         3.987312         1.069969         0.110663
 C         2.677897         0.955514        -0.524731
 C         2.968276        -0.198929        -1.358481
 O         1.667410        -0.880036        -1.150805
 H         0.254648         1.461600         0.803872
 H        -0.051183         0.844896        -0.862371
 H        -0.515468        -0.142668         0.518709
 H         2.302231         0.146649         2.138482
 H         1.585247        -1.551510         1.686675
 H         4.335751        -1.016444         2.035699
 H         3.811277        -2.220212         1.066480
 H         5.220731        -0.551372        -0.471293
 H         2.437290         1.970364        -0.704015
 H         3.288419        -0.258142        -2.337920
