19
Iteration:  4242charge 0 multiplicity 1
 C         0.235714         0.484106         0.230612
 C         1.614757         0.079634         0.052838
 C         2.272115        -0.473296         1.332600
 C         3.661665        -1.214551         1.017235
 C         4.104204        -0.432453        -0.160776
 O         3.949384         0.991076         0.274009
 C         2.697306         1.007670        -0.560682
 C         3.014804        -0.202823        -1.324143
 O         1.720152        -0.898187        -1.035194
 H         0.153582         0.998098         1.152251
 H        -0.070827         1.145281        -0.578590
 H        -0.524346        -0.291097         0.029751
 H         2.378079         0.419477         1.927500
 H         1.480162        -1.103951         1.811947
 H         4.363806        -1.302996         1.867506
 H         3.451076        -2.267632         0.811499
 H         5.138366        -0.673315        -0.471778
 H         2.365123         1.983046        -0.733022
 H         3.360447        -0.148300        -2.361722
