19
Iteration:  1937charge 0 multiplicity 1
 C         0.163737         0.471589         0.293826
 C         1.581109         0.020634         0.161336
 C         2.144380        -0.660363         1.351174
 C         3.526921        -1.197086         1.035723
 C         4.096886        -0.376558        -0.167836
 O         4.095829         1.138379         0.048351
 C         2.781775         1.088655        -0.524338
 C         3.082583        -0.256216        -1.289414
 O         1.762496        -0.888954        -1.032469
 H         0.170803         1.026535         1.242929
 H        -0.030968         1.188447        -0.470630
 H        -0.600317        -0.299449         0.192557
 H         2.183234        -0.077809         2.275864
 H         1.453242        -1.418275         1.549681
 H         4.277007        -1.032440         1.828198
 H         3.517666        -2.218142         0.651614
 H         5.153806        -0.561460        -0.298791
 H         2.240161         1.952087        -0.888871
 H         3.393477        -0.407276        -2.339093
