19
Iteration:  2120
 C         0.119729         0.502713         0.227049
 C         1.586823         0.158860         0.118744
 C         2.244286        -0.648995         1.446251
 C         3.526180        -1.241844         0.886523
 C         4.179043        -0.386439        -0.195427
 O         4.004069         1.096756         0.154552
 C         2.669850         1.074974        -0.618869
 C         3.050193        -0.199998        -1.315949
 O         1.859864        -0.976665        -0.867805
 H        -0.081430         1.098262         1.235743
 H        -0.140415         1.069673        -0.616856
 H        -0.643236        -0.369981         0.144042
 H         2.450184         0.189703         2.188918
 H         1.566231        -1.426339         1.848635
 H         4.243591        -1.459919         1.651721
 H         3.366333        -2.212922         0.440903
 H         5.186072        -0.469724        -0.548286
 H         2.311164         2.065968        -0.890619
 H         3.425944        -0.288763        -2.290657
