19
Iteration:   791charge 0 multiplicity 1
 C         0.206201         0.495505         0.277918
 C         1.605882         0.061217         0.126846
 C         2.269132        -0.500985         1.408789
 C         3.542438        -1.242136         0.918964
 C         4.141072        -0.386882        -0.142514
 O         3.933446         1.053830         0.210246
 C         2.689842         1.000402        -0.601988
 C         3.114502        -0.242433        -1.292388
 O         1.762301        -0.880125        -1.049511
 H        -0.006718         1.344649         0.885771
 H        -0.285635         0.693587        -0.714905
 H        -0.341581        -0.385776         0.745713
 H         2.453586         0.415402         1.998142
 H         1.559299        -1.166888         1.866830
 H         4.166071        -1.585954         1.705389
 H         3.292819        -2.272163         0.549643
 H         5.223813        -0.425848        -0.284953
 H         2.472874         2.000270        -1.007471
 H         3.520197        -0.383635        -2.335710
