19
Iteration:  1772charge 0 multiplicity 1
 C         0.268716         0.613154         0.157927
 C         1.608384        -0.008345         0.133194
 C         2.247698        -0.624717         1.373503
 C         3.701102        -1.194825         1.062318
 C         4.150622        -0.375891        -0.121659
 O         3.891951         1.059900         0.098721
 C         2.650140         0.960050        -0.517645
 C         3.031737        -0.231458        -1.239662
 O         1.698082        -0.889610        -1.072074
 H         0.076520         1.141045         1.162552
 H         0.156700         1.343842        -0.576050
 H        -0.500924        -0.211781        -0.098897
 H         2.449344         0.142119         2.212461
 H         1.599132        -1.375996         1.791087
 H         4.346575        -1.085707         2.037382
 H         3.728467        -2.223519         0.645080
 H         5.209064        -0.554007        -0.363074
 H         2.345178         1.942824        -0.786210
 H         3.258259        -0.274262        -2.302841
