19
Iteration:  4046
 C         0.206485         0.517510         0.235492
 C         1.599379         0.011417         0.082033
 C         2.205060        -0.515591         1.414396
 C         3.599818        -1.127373         1.034890
 C         4.139045        -0.466738        -0.218113
 O         3.982149         1.015988         0.305371
 C         2.763226         0.964740        -0.522063
 C         2.963657        -0.207513        -1.426221
 O         1.761895        -0.860256        -1.092997
 H         0.017221         0.845224         1.255973
 H        -0.100534         1.358432        -0.424143
 H        -0.416910        -0.422830         0.135094
 H         2.444170         0.212005         2.145477
 H         1.573986        -1.298916         1.853043
 H         4.364909        -0.902777         1.776560
 H         3.591064        -2.143510         0.739005
 H         5.193324        -0.727577        -0.447827
 H         2.545497         1.932813        -0.862889
 H         3.176386        -0.235777        -2.446928
