19
Iteration:  2885charge 0 multiplicity 1
 C         0.137839         0.530011         0.172279
 C         1.593672         0.040714         0.210461
 C         2.209512        -0.648666         1.379526
 C         3.580133        -1.233100         0.930333
 C         4.131180        -0.350630        -0.156856
 O         4.014369         1.074845         0.072271
 C         2.696098         1.049280        -0.422816
 C         3.031778        -0.264290        -1.240042
 O         1.816698        -0.834807        -1.036838
 H         0.230868         1.476866         0.733940
 H        -0.054673         0.768617        -0.821628
 H        -0.589832        -0.198407         0.446716
 H         2.326366         0.088554         2.168816
 H         1.629858        -1.560085         1.831953
 H         4.330016        -1.346799         1.825198
 H         3.446041        -2.262842         0.491236
 H         5.210565        -0.694059        -0.351660
 H         2.261210         1.986004        -0.757003
 H         3.366750        -0.345860        -2.282349
