19
Iteration:  2417charge 0 multiplicity 1
 C         0.155665         0.451542         0.253200
 C         1.636419         0.067391         0.131174
 C         2.249744        -0.591931         1.349213
 C         3.589099        -1.205879         1.009325
 C         4.119708        -0.401363        -0.236684
 O         3.976884         1.013408         0.182952
 C         2.664835         1.046467        -0.479226
 C         3.021712        -0.185462        -1.303915
 O         1.831464        -0.855518        -1.067837
 H         0.171650         1.279503         0.998748
 H        -0.395674         0.880810        -0.640005
 H        -0.392495        -0.348049         0.681734
 H         2.279610         0.149327         2.244540
 H         1.492018        -1.343035         1.672563
 H         4.316279        -1.077491         1.848227
 H         3.544156        -2.339353         0.614197
 H         5.143471        -0.702433        -0.434206
 H         2.340040         2.055442        -0.830868
 H         3.339907        -0.023287        -2.349552
