19
Iteration:   250
 C         0.247352         0.556900         0.172339
 C         1.601698         0.210380         0.112154
 C         2.065844        -0.683696         1.311833
 C         3.582035        -1.044908         1.023257
 C         4.110827        -0.338290        -0.201526
 O         3.986821         1.013558         0.110073
 C         2.700237         1.027767        -0.519536
 C         3.031237        -0.345615        -1.307246
 O         1.913379        -0.975727        -0.854687
 H         0.169012         1.470674         0.989080
 H        -0.207351         0.981952        -0.691183
 H        -0.502632        -0.197144         0.394755
 H         1.999448        -0.339195         2.375277
 H         1.398774        -1.548569         1.140664
 H         4.258168        -0.772351         1.860728
 H         3.657725        -2.257273         0.998023
 H         4.996244        -0.738983        -0.609463
 H         2.408302         2.004211        -1.019839
 H         3.370455        -0.570498        -2.288539
