19
Iteration:  1548
 C         0.174755         0.486761         0.124842
 C         1.607995         0.033354         0.267374
 C         2.205067        -0.539929         1.457486
 C         3.470888        -1.204183         0.968114
 C         4.189036        -0.350836        -0.105829
 O         4.089830         1.111565         0.047552
 C         2.676444         1.000231        -0.510005
 C         3.063354        -0.284459        -1.305108
 O         1.760977        -0.878360        -1.016825
 H        -0.087542         1.181870         0.914091
 H        -0.004495         0.630067        -0.956008
 H        -0.441010        -0.337715         0.330739
 H         2.572746        -0.013863         2.239519
 H         1.418855        -1.163514         1.836387
 H         4.070470        -1.499762         1.762070
 H         3.262622        -2.112312         0.353588
 H         5.256722        -0.568104        -0.304500
 H         2.166438         1.935664        -0.842964
 H         3.541742        -0.241823        -2.258890
