19
Iteration:  1226charge 0 multiplicity 1
 C         0.147935         0.406539         0.209366
 C         1.607029         0.052639         0.107697
 C         2.308387        -0.363535         1.416965
 C         3.558436        -1.211593         0.989486
 C         4.104416        -0.483694        -0.255479
 O         3.963544         0.927810         0.187719
 C         2.653753         1.018829        -0.462386
 C         3.022579        -0.128228        -1.290614
 O         1.844676        -0.911674        -1.061301
 H         0.049642         1.105283         0.957554
 H         0.076551         0.900537        -0.771159
 H        -0.431393        -0.491177         0.401441
 H         2.437872         0.553614         1.899208
 H         1.660621        -0.826430         2.089488
 H         4.294781        -0.954697         1.799152
 H         3.177671        -2.152337         0.890340
 H         5.119364        -0.640063        -0.566194
 H         2.505758         2.140212        -0.650139
 H         3.362972        -0.166459        -2.327771
