19
Iteration:  2052charge 0 multiplicity 1
 C         0.192852         0.603197         0.240254
 C         1.614672         0.048180         0.182605
 C         2.225004        -0.679795         1.306298
 C         3.720053        -1.117160         1.070082
 C         4.202210        -0.421058        -0.221100
 O         3.881117         1.042284         0.187012
 C         2.669383         1.030728        -0.530354
 C         3.056861        -0.266171        -1.335870
 O         1.736925        -0.873513        -1.071522
 H         0.092231         1.426726         1.021252
 H        -0.340208         0.812347        -0.713440
 H        -0.498220        -0.229547         0.608682
 H         2.281690        -0.013385         2.211614
 H         1.605919        -1.602455         1.631114
 H         4.320966        -0.834196         1.933158
 H         3.605717        -2.225656         0.956988
 H         5.234770        -0.768027        -0.457362
 H         2.301387         1.962712        -0.895766
 H         3.349720        -0.374260        -2.363685
