19
Iteration:   673charge 0 multiplicity 1
 C         0.260037         0.655306         0.284728
 C         1.560864        -0.035682         0.031343
 C         2.187548        -0.579147         1.328899
 C         3.653311        -1.125351         1.125736
 C         4.098315        -0.391191        -0.145393
 O         3.887146         1.001513         0.171430
 C         2.666618         0.948510        -0.568285
 C         3.037041        -0.238778        -1.314129
 O         1.833903        -0.944598        -1.123287
 H         0.432088         0.939916         1.402926
 H         0.044729         1.572003        -0.242546
 H        -0.646840         0.052034         0.302377
 H         2.442283         0.305828         1.898285
 H         1.649033        -1.272684         2.059070
 H         4.434355        -0.830104         1.976812
 H         3.686971        -2.235082         1.057654
 H         5.213512        -0.580080        -0.350475
 H         2.291866         1.860932        -1.054551
 H         3.360291        -0.308908        -2.417168
