19
Iteration:  1135charge 0 multiplicity 1
 C         0.277176         0.683103         0.316229
 C         1.578849         0.030738         0.043754
 C         2.200851        -0.584662         1.244554
 C         3.645526        -1.096679         1.070845
 C         4.137557        -0.425967        -0.231708
 O         3.819844         1.013184         0.254793
 C         2.655138         0.952366        -0.546919
 C         3.079698        -0.301833        -1.311008
 O         1.821069        -0.959151        -1.044314
 H         0.241521         1.513370         1.074982
 H        -0.117050         1.133891        -0.609827
 H        -0.270043        -0.090163         0.829179
 H         2.323207        -0.122466         2.204408
 H         1.600489        -1.466013         1.533002
 H         4.386638        -0.645235         1.746812
 H         3.716231        -2.195819         0.973307
 H         5.243082        -0.558170        -0.473552
 H         2.312722         1.954204        -1.015694
 H         3.420111        -0.252814        -2.334420
