19
Iteration:   817
 C         0.212571         0.605534         0.255748
 C         1.604791         0.061622         0.150522
 C         2.149517        -0.736067         1.384202
 C         3.576296        -1.247111         0.966190
 C         4.132295        -0.356186        -0.079681
 O         3.990621         1.226803         0.023033
 C         2.751884         0.988781        -0.574860
 C         3.028795        -0.269324        -1.260559
 O         1.793025        -0.931618        -0.994291
 H         0.049138         1.149456         1.222410
 H        -0.109484         1.244542        -0.466281
 H        -0.423686        -0.215558         0.282071
 H         2.239254        -0.100415         2.233784
 H         1.378494        -1.550947         1.524619
 H         4.155252        -1.437017         1.896919
 H         3.649107        -2.197150         0.579235
 H         5.222056        -0.427509        -0.278607
 H         2.402074         1.925228        -0.992722
 H         3.442825        -0.447551        -2.236765
