19
Iteration:  1996charge 0 multiplicity 1
 C         0.180586         0.507302         0.158636
 C         1.600201         0.030409         0.210469
 C         2.268372        -0.592302         1.404854
 C         3.607847        -1.272436         0.958162
 C         4.122329        -0.286340        -0.145712
 O         3.958706         1.092888         0.150563
 C         2.698770         1.001106        -0.519702
 C         3.049811        -0.265627        -1.303356
 O         1.770992        -0.858026        -1.025095
 H         0.028504         1.250469         0.958498
 H        -0.083861         1.002923        -0.884923
 H        -0.494273        -0.247710         0.597440
 H         2.695790         0.214117         2.033710
 H         1.496863        -1.211412         2.057513
 H         4.324146        -1.659833         1.716908
 H         3.326487        -2.268474         0.484497
 H         5.161972        -0.691337        -0.336143
 H         2.221881         1.783674        -1.070566
 H         3.328678        -0.163870        -2.395655
