19
Iteration:  1944
 C         0.178046         0.496900         0.317624
 C         1.587899         0.013755         0.139869
 C         2.127147        -0.631944         1.379159
 C         3.533836        -1.173961         0.987451
 C         4.131591        -0.380379        -0.185596
 O         4.025574         1.109085         0.081675
 C         2.760535         1.079136        -0.539745
 C         3.091498        -0.261647        -1.313683
 O         1.816449        -0.879958        -1.025174
 H         0.052524         0.955596         1.338750
 H        -0.174122         1.183707        -0.442461
 H        -0.470296        -0.428785         0.249005
 H         2.136778         0.054130         2.245616
 H         1.417875        -1.473890         1.624134
 H         4.255390        -1.060166         1.791866
 H         3.448622        -2.267732         0.891316
 H         5.066092        -0.952022        -0.432512
 H         2.479712         2.177632        -0.937866
 H         3.409148        -0.324230        -2.330754
