19
Iteration:   763
 C         0.144322         0.443518         0.215436
 C         1.559654         0.026721         0.097769
 C         2.259661        -0.428791         1.369338
 C         3.535318        -1.205927         0.973720
 C         4.097066        -0.458256        -0.273524
 O         4.024362         0.895737         0.256915
 C         2.671485         1.098355        -0.510826
 C         3.038633        -0.106323        -1.382079
 O         1.883137        -0.926830        -0.969323
 H         0.033758         1.510185         0.691978
 H        -0.359691         0.402301        -0.732419
 H        -0.376540        -0.168760         0.902687
 H         2.396627         0.480978         1.932908
 H         1.483456        -1.061523         1.933258
 H         4.368069        -1.005748         1.801193
 H         3.331310        -2.271552         0.930593
 H         5.174787        -0.601675        -0.534233
 H         2.473714         2.185228        -0.664097
 H         3.301140        -0.184752        -2.414800
