19
Iteration:   176
 C         0.121952         0.482468         0.199860
 C         1.637281         0.138226         0.084859
 C         2.127646        -0.467473         1.402927
 C         3.503016        -1.220278         0.973217
 C         4.104623        -0.376275        -0.174930
 O         3.958247         1.032117         0.154088
 C         2.820618         1.097137        -0.628543
 C         3.043376        -0.287798        -1.358819
 O         1.944311        -1.002863        -0.858112
 H         0.079205         1.261640         0.950247
 H        -0.541291         0.898186        -0.631538
 H        -0.469973        -0.388113         0.607684
 H         2.289153         0.274714         2.235551
 H         1.375791        -1.217375         1.703740
 H         4.208656        -1.296434         1.752287
 H         3.341031        -2.246750         0.681993
 H         5.168850        -0.629273        -0.303392
 H         2.482954         2.099999        -1.007885
 H         3.346585        -0.390643        -2.378794
