19
Iteration:  2515
 C         0.163609         0.586955         0.164174
 C         1.636122         0.076029         0.203552
 C         2.297490        -0.762697         1.350855
 C         3.695557        -1.241120         1.058112
 C         4.134361        -0.358476        -0.152499
 O         3.974788         1.103687         0.119790
 C         2.632844         0.995015        -0.451692
 C         2.943157        -0.206742        -1.307284
 O         1.754035        -0.878676        -1.086451
 H        -0.073997         1.361802         0.914045
 H         0.096199         1.025110        -0.844283
 H        -0.577723        -0.137808         0.142722
 H         2.388653        -0.059086         2.297192
 H         1.625203        -1.498037         1.873976
 H         4.370267        -1.144768         1.934270
 H         3.861546        -2.368009         0.738956
 H         5.091624        -0.449765        -0.659663
 H         2.255221         2.014389        -0.638056
 H         3.278352        -0.183910        -2.349346
