19
Iteration:  2003charge 0 multiplicity 1
 C         0.167014         0.519901         0.190655
 C         1.647403         0.036432         0.219991
 C         2.248300        -0.608222         1.459928
 C         3.546504        -1.319945         0.920003
 C         4.171530        -0.297636        -0.121662
 O         3.974556         1.127060         0.081744
 C         2.644378         0.963952        -0.519601
 C         3.065968        -0.227795        -1.319268
 O         1.795060        -0.883995        -0.998007
 H         0.037690         1.376102         0.843552
 H        -0.066447         0.848348        -0.847027
 H        -0.616909        -0.174982         0.450624
 H         2.379955         0.184277         2.206670
 H         1.540747        -1.291619         1.826395
 H         4.294061        -1.441627         1.743773
 H         3.272279        -2.259167         0.433693
 H         5.198790        -0.592177        -0.312575
 H         2.445367         1.994604        -0.906249
 H         3.325769        -0.104969        -2.409941
