19
Iteration:  1381
 C         0.191354         0.474905         0.231965
 C         1.642737         0.083275         0.149001
 C         2.209240        -0.460281         1.406054
 C         3.474960        -1.258951         0.930713
 C         4.117144        -0.366373        -0.138232
 O         3.974442         1.078467         0.145124
 C         2.727637         1.048699        -0.596442
 C         3.048807        -0.261323        -1.278557
 O         1.872358        -0.949704        -0.995065
 H         0.117686         1.132624         1.179218
 H        -0.277233         0.856547        -0.622161
 H        -0.384635        -0.478887         0.484007
 H         2.535689         0.323109         2.065708
 H         1.516732        -1.140630         1.915475
 H         4.101321        -1.668667         1.818537
 H         3.250254        -2.163260         0.339889
 H         5.192577        -0.463840        -0.172903
 H         2.295205         2.081686        -1.105246
 H         3.182505        -0.428498        -2.430367
