19
Iteration:  1173
 C         0.258457         0.661345         0.272764
 C         1.637179         0.035598         0.143328
 C         2.169528        -0.816029         1.340147
 C         3.588088        -1.216026         1.021569
 C         4.123090        -0.369609        -0.068017
 O         3.967535         1.234929        -0.028748
 C         2.653822         0.947720        -0.572884
 C         3.079951        -0.254653        -1.216506
 O         1.796577        -0.897252        -0.986456
 H         0.382937         1.389353         1.051068
 H        -0.021627         1.113576        -0.681939
 H        -0.555332        -0.098208         0.386298
 H         1.987985        -0.098268         2.196190
 H         1.415232        -1.620145         1.545549
 H         4.128287        -1.214137         2.017325
 H         3.550926        -2.272858         0.654677
 H         5.122199        -0.587651        -0.339853
 H         2.168292         1.770802        -1.053676
 H         3.493149        -0.411992        -2.252850
