19
Iteration:  3438
 C         0.237720         0.524196         0.307482
 C         1.590212         0.090194         0.098285
 C         2.114904        -0.659410         1.324370
 C         3.507556        -1.198373         0.958753
 C         4.182907        -0.307672        -0.203101
 O         4.020713         1.052216         0.152088
 C         2.684644         1.033172        -0.531999
 C         3.037485        -0.207477        -1.296091
 O         1.871385        -0.963043        -0.970547
 H         0.378946         1.352358         0.978934
 H        -0.343097         0.914373        -0.557279
 H        -0.489397        -0.196129         0.823420
 H         2.060376        -0.013279         2.275449
 H         1.538410        -1.551722         1.442205
 H         4.141895        -1.304917         1.861339
 H         3.227338        -2.159484         0.477915
 H         5.213809        -0.570344        -0.375397
 H         2.480170         2.054988        -1.065942
 H         3.275279        -0.022136        -2.330477
