19
Iteration:  1698charge 0 multiplicity 1
 C         0.171713         0.434899         0.154367
 C         1.597896         0.020506         0.152855
 C         2.322416        -0.514369         1.441135
 C         3.593833        -1.211789         1.066709
 C         4.148165        -0.372746        -0.103055
 O         3.965533         0.996895         0.198859
 C         2.726842         1.008408        -0.550814
 C         2.973354        -0.216737        -1.323875
 O         1.721723        -0.828591        -1.147795
 H         0.233465         1.442216         0.651453
 H        -0.169943         0.664986        -0.830961
 H        -0.463886        -0.186406         0.771619
 H         2.348567         0.437589         2.054658
 H         1.745470        -1.283543         2.042931
 H         4.481712        -1.110616         1.665359
 H         3.343153        -2.144672         0.707312
 H         5.104459        -0.631933        -0.436085
 H         2.531323         2.037058        -0.877156
 H         3.450477        -0.470165        -2.288263
