19
Iteration:  2069
 C         0.190216         0.531907         0.324481
 C         1.571327         0.018220         0.013243
 C         2.279506        -0.635822         1.397673
 C         3.744064        -1.161376         1.101728
 C         4.063993        -0.379915        -0.108910
 O         3.931261         1.039137         0.167780
 C         2.712127         0.953759        -0.548661
 C         3.014132        -0.280860        -1.288531
 O         1.716065        -0.794430        -1.177053
 H         0.236959         1.284806         1.059929
 H        -0.065819         1.014383        -0.686772
 H        -0.571412        -0.153537         0.569526
 H         2.271603         0.118098         2.195170
 H         1.660855        -1.448843         1.689119
 H         4.502609        -0.924206         1.910697
 H         3.906421        -2.235345         0.971179
 H         5.085569        -0.408765        -0.530359
 H         2.209590         1.874510        -1.072747
 H         3.511950        -0.360830        -2.327029
