19
Iteration:  3657
 C         0.228822         0.473345         0.311058
 C         1.595932         0.126329         0.040705
 C         2.207026        -0.587149         1.339357
 C         3.521049        -1.187525         0.980959
 C         4.130874        -0.448401        -0.288755
 O         3.957145         0.977097         0.288603
 C         2.737301         1.075927        -0.439479
 C         3.058324        -0.206420        -1.376303
 O         1.808189        -0.883399        -1.068876
 H         0.137227         1.064326         1.267834
 H        -0.383691         1.204700        -0.328215
 H        -0.414786        -0.514197         0.481971
 H         2.354672         0.419896         1.852379
 H         1.451428        -1.050273         1.963902
 H         4.246642        -1.208901         1.801959
 H         3.594012        -2.246600         0.670956
 H         5.148270        -0.707219        -0.515181
 H         2.446977         2.157497        -0.750513
 H         3.438770        -0.347471        -2.446745
