19
Iteration:  2933charge 0 multiplicity 1
 C         0.193810         0.566861         0.384996
 C         1.647562         0.060499         0.052082
 C         2.209223        -0.609817         1.276398
 C         3.549017        -1.189791         0.985987
 C         4.107218        -0.407988        -0.156804
 O         3.920841         1.033195         0.231484
 C         2.661528         1.022158        -0.587879
 C         3.133266        -0.238312        -1.334076
 O         1.813765        -0.878656        -1.016291
 H         0.316898         1.336310         1.017702
 H        -0.266447         0.929066        -0.544468
 H        -0.360651        -0.294664         0.625957
 H         2.344666         0.096985         2.115134
 H         1.566559        -1.368527         1.591945
 H         4.141922        -1.164003         1.829846
 H         3.494656        -2.225724         0.683947
 H         5.123413        -0.622876        -0.510652
 H         2.315764         2.009342        -1.022780
 H         3.564813        -0.383519        -2.349795
