19
Iteration:  4967
 C         0.135551         0.540755         0.190237
 C         1.574675         0.085181         0.152486
 C         2.219377        -0.621304         1.380179
 C         3.621873        -1.297956         0.917867
 C         4.188507        -0.316150        -0.102746
 O         3.984226         1.095599         0.067507
 C         2.677910         1.035444        -0.519330
 C         3.060918        -0.262118        -1.250865
 O         1.760872        -0.882436        -0.952576
 H        -0.076671         0.876568         1.250345
 H        -0.023730         1.539160        -0.414146
 H        -0.557090        -0.278363        -0.192479
 H         2.595708        -0.022859         2.201368
 H         1.725806        -1.466720         1.863894
 H         4.232343        -1.358832         1.853748
 H         3.558365        -2.265823         0.363706
 H         5.202466        -0.616310        -0.429239
 H         2.321375         1.928041        -0.952989
 H         3.368295        -0.479267        -2.269040
