19
Iteration:  1087charge 0 multiplicity 1
 C         0.162223         0.382585         0.166717
 C         1.594179         0.098066         0.172656
 C         2.144782        -0.507402         1.450284
 C         3.451460        -1.243986         0.931334
 C         4.177679        -0.396500        -0.209526
 O         4.113758         1.098360         0.028753
 C         2.711257         1.032503        -0.477092
 C         3.040253        -0.203989        -1.267217
 O         1.841915        -0.888633        -0.921399
 H        -0.203586         1.195200         0.834200
 H        -0.160258         0.699866        -0.814522
 H        -0.366664        -0.487049         0.661079
 H         2.501374         0.196224         2.256072
 H         1.318230        -1.126973         1.929681
 H         4.218982        -1.387277         1.653534
 H         3.058935        -2.167806         0.405388
 H         5.179523        -0.721988        -0.419949
 H         2.299376         1.906410        -0.813099
 H         3.505659        -0.165784        -2.288922
