19
Iteration:  1709
 C         0.197458         0.498418         0.258383
 C         1.617140        -0.019391         0.082037
 C         2.197331        -0.548137         1.464536
 C         3.572259        -1.161733         1.012881
 C         4.105106        -0.432772        -0.134091
 O         3.972085         1.087278         0.153087
 C         2.775891         1.038534        -0.514698
 C         3.065008        -0.267329        -1.345330
 O         1.760444        -0.876118        -1.128551
 H         0.123906         1.413295         0.899352
 H        -0.315723         0.673866        -0.661228
 H        -0.418337        -0.283869         0.698323
 H         2.441717         0.391703         2.050469
 H         1.565564        -1.208853         2.131372
 H         4.170329        -1.324462         1.903820
 H         3.469135        -2.147642         0.675744
 H         5.086470        -0.638119        -0.441229
 H         2.297819         1.884412        -0.859884
 H         3.513239        -0.202530        -2.352664
