19
Iteration:  4993charge 0 multiplicity 1
 C         0.190271         0.480483         0.228865
 C         1.628866         0.055171         0.133939
 C         2.291977        -0.446928         1.389883
 C         3.621948        -1.161893         1.015108
 C         4.119670        -0.420344        -0.262438
 O         3.921620         0.959730         0.291579
 C         2.710924         1.004142        -0.554421
 C         3.006338        -0.204205        -1.371233
 O         1.756492        -0.910589        -1.043010
 H        -0.149836         0.663724         1.248679
 H         0.205952         1.485768        -0.190667
 H        -0.456655        -0.225816        -0.328731
 H         2.568401         0.202292         2.188612
 H         1.781074        -1.308090         1.938117
 H         4.230297        -0.901210         1.833326
 H         3.517982        -2.204690         0.837409
 H         5.050725        -0.728960        -0.748405
 H         2.297908         2.043558        -0.889449
 H         3.277799        -0.266309        -2.493266
