19
Iteration:  3992
 C         0.202888         0.624345         0.253292
 C         1.561049        -0.032634         0.190455
 C         2.129081        -0.735815         1.375997
 C         3.506869        -1.203257         0.935565
 C         4.165536        -0.277956        -0.125697
 O         4.059270         1.130251         0.105556
 C         2.751338         1.026593        -0.568804
 C         3.109656        -0.245637        -1.256609
 O         1.748972        -0.916572        -1.016628
 H         0.202706         1.232867         1.113723
 H        -0.070209         0.938296        -0.742744
 H        -0.615987        -0.072461         0.496025
 H         2.331158        -0.066267         2.167995
 H         1.502766        -1.544098         1.665457
 H         4.169200        -1.403723         1.784447
 H         3.405426        -2.085836         0.336128
 H         5.172234        -0.498853        -0.543241
 H         2.408113         1.992498        -0.815622
 H         3.463488        -0.547158        -2.207642
