19
Iteration:  2394
 C         0.166167         0.537196         0.251053
 C         1.625916         0.069814         0.215246
 C         2.115445        -0.728282         1.351866
 C         3.544137        -1.214819         0.881212
 C         4.157837        -0.285011        -0.232965
 O         3.998513         1.110992         0.131668
 C         2.759020         1.074859        -0.507921
 C         3.006910        -0.190440        -1.346440
 O         1.866138        -0.972293        -0.895711
 H         0.006596         1.461929         0.881926
 H        -0.048925         0.821034        -0.782669
 H        -0.534377        -0.211750         0.520498
 H         2.181377        -0.245262         2.404035
 H         1.404166        -1.618415         1.494906
 H         4.250582        -1.110745         1.760181
 H         3.482575        -2.392893         0.560172
 H         5.146323        -0.701893        -0.476634
 H         2.471384         2.082303        -0.777480
 H         3.321342        -0.231948        -2.374569
