19
Iteration:  3883charge 0 multiplicity 1
 C         0.208916         0.570883         0.310454
 C         1.606674         0.069548         0.093726
 C         2.148726        -0.647755         1.295947
 C         3.553907        -1.241932         0.963276
 C         4.155226        -0.393579        -0.174472
 O         4.003241         1.072972         0.207757
 C         2.705538         1.062862        -0.570379
 C         3.071356        -0.222244        -1.302373
 O         1.810441        -0.928711        -0.989290
 H         0.121200         0.969602         1.312727
 H        -0.123833         1.381993        -0.367997
 H        -0.490369        -0.268934         0.254038
 H         2.280803         0.148580         2.100118
 H         1.312696        -1.329004         1.534703
 H         4.303276        -1.094681         1.844783
 H         3.329334        -2.260804         0.538835
 H         5.267921        -0.624944        -0.348892
 H         2.360142         1.967721        -1.051628
 H         3.236287        -0.344549        -2.377901
