19
Iteration:  1950charge 0 multiplicity 1
 C         0.181624         0.506604         0.334593
 C         1.624186         0.072868         0.086743
 C         2.124549        -0.622903         1.405482
 C         3.544429        -1.138789         0.972391
 C         4.153585        -0.425200        -0.192395
 O         3.978385         1.045621         0.136309
 C         2.714348         1.034155        -0.582028
 C         3.048884        -0.212019        -1.328958
 O         1.872264        -0.872497        -1.010572
 H        -0.084173         0.854636         1.311352
 H        -0.320564         1.216055        -0.458934
 H        -0.351262        -0.424297         0.378429
 H         2.120090         0.210693         2.122096
 H         1.515823        -1.497415         1.766144
 H         4.198301        -1.066951         1.884981
 H         3.481004        -2.245130         0.868677
 H         5.082692        -0.856548        -0.611600
 H         2.646231         1.991721        -0.893643
 H         3.422451        -0.297703        -2.405893
