19
Iteration:   588charge 0 multiplicity 1
 C         0.236978         0.503880         0.164429
 C         1.615634        -0.048337         0.099188
 C         2.308021        -0.506332         1.442151
 C         3.628443        -1.159235         1.035111
 C         4.087761        -0.368111        -0.134670
 O         3.948612         1.044548         0.234345
 C         2.677850         0.993219        -0.556739
 C         3.064703        -0.295351        -1.308389
 O         1.677991        -0.877951        -1.099050
 H         0.441733         1.583994         0.543607
 H        -0.067729         0.764144        -0.797565
 H        -0.549192        -0.068444         0.620602
 H         2.448678         0.477249         1.926607
 H         1.704578        -1.183505         2.083062
 H         4.292557        -1.136000         1.875027
 H         3.428659        -2.159518         0.762670
 H         5.115781        -0.608016        -0.448548
 H         2.312656         1.933370        -1.001513
 H         3.424909        -0.482791        -2.293295
