19
Iteration:  2519charge 0 multiplicity 1
 C         0.169500         0.596139         0.148503
 C         1.626734         0.054138         0.202596
 C         2.300731        -0.724209         1.384264
 C         3.726485        -1.276463         1.070161
 C         4.111799        -0.346348        -0.172985
 O         3.954579         1.092126         0.148222
 C         2.679967         0.997498        -0.445473
 C         2.917394        -0.211845        -1.340843
 O         1.730446        -0.861517        -1.104914
 H        -0.023134         1.284179         0.926466
 H         0.016818         0.997192        -0.889167
 H        -0.627180        -0.212595         0.270462
 H         2.442266        -0.059158         2.243970
 H         1.728892        -1.500150         1.819030
 H         4.370067        -1.098018         1.954890
 H         3.961296        -2.333372         0.783154
 H         5.165948        -0.427602        -0.448730
 H         2.258604         2.020812        -0.783279
 H         3.365789        -0.199590        -2.398900
