19
Iteration:  1761charge 0 multiplicity 1
 C         0.224621         0.616292         0.205561
 C         1.643481         0.055631         0.145025
 C         2.220010        -0.662647         1.385273
 C         3.638095        -1.205449         0.961540
 C         4.150270        -0.317315        -0.134170
 O         3.944370         1.115300         0.185745
 C         2.676921         0.985761        -0.588581
 C         3.036963        -0.358207        -1.313140
 O         1.739257        -0.890575        -0.999392
 H        -0.049137         1.105811         1.206668
 H         0.168798         1.310335        -0.568434
 H        -0.609616        -0.171517         0.062997
 H         2.234123         0.053106         2.293736
 H         1.610300        -1.516773         1.609013
 H         4.228679        -1.094459         1.958504
 H         3.593844        -2.300107         0.789931
 H         5.186621        -0.401053        -0.492861
 H         2.164636         1.755485        -1.131626
 H         3.465173        -0.475505        -2.319522
