19
Iteration:  3394charge 0 multiplicity 1
 C         0.227650         0.586993         0.249997
 C         1.616060         0.046784         0.083929
 C         2.255703        -0.593835         1.353215
 C         3.670642        -1.223434         1.008612
 C         4.185280        -0.380295        -0.100269
 O         3.890667         1.014025         0.260622
 C         2.670316         0.952405        -0.577929
 C         3.024049        -0.221180        -1.315264
 O         1.728719        -0.833065        -1.100667
 H         0.298852         1.306283         1.055714
 H        -0.258294         1.033483        -0.678581
 H        -0.369697        -0.334512         0.580716
 H         2.379318         0.168629         2.221762
 H         1.551469        -1.354067         1.586103
 H         4.313108        -1.208991         1.905312
 H         3.668381        -2.223378         0.494091
 H         5.130659        -0.583558        -0.522689
 H         2.245977         1.985587        -1.012579
 H         3.346290        -0.465441        -2.288401
