19
Iteration:  2827
 C         0.136364         0.564840         0.243652
 C         1.609645         0.060442         0.073504
 C         2.257329        -0.556932         1.330264
 C         3.706282        -1.249925         1.045157
 C         4.156495        -0.410751        -0.103965
 O         3.974192         1.030856         0.271910
 C         2.673958         0.986763        -0.541156
 C         3.005493        -0.240312        -1.390112
 O         1.727035        -0.889979        -1.112991
 H         0.144649         0.949416         1.294758
 H        -0.068518         1.359191        -0.505570
 H        -0.661667        -0.208914         0.389338
 H         2.487094         0.340053         2.021330
 H         1.619747        -1.339396         1.809117
 H         4.397237        -1.105402         1.939633
 H         3.556678        -2.299897         0.685786
 H         5.170825        -0.425219        -0.414957
 H         2.281169         1.949453        -0.902739
 H         3.320591        -0.100335        -2.423208
