19
Iteration:  4438
 C         0.245645         0.586297         0.190720
 C         1.604714         0.047033         0.146609
 C         2.232426        -0.610038         1.336870
 C         3.638739        -1.246214         1.025629
 C         4.153579        -0.413902        -0.101078
 O         3.873571         1.030102         0.158650
 C         2.677030         1.001244        -0.507960
 C         3.016104        -0.212367        -1.325098
 O         1.758305        -0.889933        -1.039817
 H         0.062300         1.235393         1.015687
 H         0.119035         1.174243        -0.694157
 H        -0.546650        -0.176032         0.334930
 H         2.662005         0.283292         1.872473
 H         1.574782        -1.242840         1.974811
 H         4.430380        -0.988530         1.771201
 H         3.750481        -2.324892         0.779723
 H         5.257484        -0.533539        -0.418305
 H         2.445082         1.961732        -0.983233
 H         3.323607        -0.233969        -2.414462
