19
Iteration:  4864charge 0 multiplicity 1
 C         0.172993         0.487866         0.259198
 C         1.663859         0.105404         0.153987
 C         2.125331        -0.604266         1.354284
 C         3.523415        -1.200331         0.905469
 C         4.189086        -0.397045        -0.218698
 O         3.968395         1.122119         0.129459
 C         2.735525         1.020470        -0.506049
 C         3.040701        -0.199508        -1.258600
 O         1.856006        -0.952659        -0.975490
 H         0.150881         1.517638         0.672239
 H        -0.429006         0.448318        -0.624009
 H        -0.416814        -0.038891         1.064101
 H         2.306012         0.010885         2.262869
 H         1.400915        -1.401563         1.547542
 H         4.287515        -1.291031         1.770436
 H         3.319980        -2.314511         0.636339
 H         5.150226        -0.881497        -0.415652
 H         2.320624         1.958342        -0.996391
 H         3.330213        -0.039145        -2.329679
