19
Iteration:   121
 C         0.174706         0.622519         0.143843
 C         1.642618        -0.008297         0.116813
 C         2.278341        -0.577951         1.403583
 C         3.698640        -1.073338         1.199788
 C         4.075494        -0.425836        -0.147227
 O         3.916187         0.969041         0.176222
 C         2.648904         1.002715        -0.600169
 C         3.039659        -0.320970        -1.331509
 O         1.742748        -0.889340        -1.100133
 H         0.087246         1.230815         1.020023
 H         0.163046         1.326207        -0.714287
 H        -0.683338        -0.055242         0.066571
 H         2.433717         0.292744         2.083579
 H         1.727507        -1.348508         1.956797
 H         4.411666        -0.830718         1.945251
 H         3.755740        -2.144793         1.041503
 H         5.091939        -0.705341        -0.466858
 H         2.288404         2.025510        -0.960225
 H         3.490714        -0.471839        -2.286704
