19
Iteration:  2721
 C         0.258967         0.579898         0.211534
 C         1.642449        -0.039441         0.124928
 C         2.262674        -0.554051         1.407091
 C         3.613765        -1.253003         0.946087
 C         4.015761        -0.388995        -0.196127
 O         3.930378         1.035963         0.264376
 C         2.631128         1.019956        -0.452559
 C         3.035515        -0.226589        -1.339523
 O         1.820949        -0.895735        -1.109486
 H         0.293246         1.523865         0.894414
 H        -0.274353         0.943194        -0.772474
 H        -0.433866        -0.158921         0.633930
 H         2.572089         0.251951         1.982170
 H         1.507846        -1.145969         2.055375
 H         4.388200        -0.995868         1.739105
 H         3.735156        -2.318025         0.770139
 H         5.098928        -0.488062        -0.653495
 H         2.327025         1.990419        -0.819221
 H         3.254802        -0.278516        -2.397873
