19
Iteration:  3801charge 0 multiplicity 1
 C         0.125573         0.503640         0.288275
 C         1.586656         0.046870         0.139344
 C         2.121753        -0.618237         1.336750
 C         3.523732        -1.206601         0.896186
 C         4.119717        -0.423585        -0.179618
 O         4.026887         1.064339         0.172656
 C         2.838323         1.041052        -0.570226
 C         3.078780        -0.180728        -1.281978
 O         1.861621        -0.827064        -0.960024
 H        -0.015539         1.315779         1.053174
 H        -0.462542         0.650989        -0.596375
 H        -0.412823        -0.343836         0.824025
 H         2.301788        -0.118230         2.203261
 H         1.389885        -1.386124         1.558275
 H         4.028752        -1.348128         1.776792
 H         3.397833        -2.208474         0.509037
 H         5.094311        -0.638139        -0.494523
 H         2.490755         1.941283        -1.132887
 H         3.262322        -0.375112        -2.318973
