19
Iteration:  1526charge 0 multiplicity 1
 C         0.142388         0.534058         0.145609
 C         1.592204         0.070124         0.090742
 C         2.254545        -0.536097         1.378879
 C         3.583049        -1.249383         0.969688
 C         4.131679        -0.398831        -0.194353
 O         3.925928         1.052856         0.222690
 C         2.750021         1.061626        -0.568028
 C         3.003659        -0.253814        -1.298531
 O         1.859602        -0.933741        -0.915238
 H         0.204680         1.325561         0.880154
 H        -0.253088         0.682799        -0.871220
 H        -0.499807        -0.158653         0.621942
 H         2.455971         0.218555         2.085323
 H         1.469822        -1.086671         1.845459
 H         4.344172        -1.342517         1.694748
 H         3.180763        -2.220048         0.631121
 H         5.180747        -0.569545        -0.496277
 H         2.506484         2.068670        -0.953058
 H         3.368771        -0.330302        -2.313583
