19
Iteration:  3530
 C         0.163575         0.468990         0.347140
 C         1.599988         0.148333         0.147707
 C         2.187990        -0.644829         1.277437
 C         3.494101        -1.254524         0.969815
 C         4.154731        -0.405941        -0.154478
 O         4.001249         1.146951         0.162855
 C         2.738562         1.034522        -0.599313
 C         3.106319        -0.270463        -1.335705
 O         1.852647        -0.836649        -0.967307
 H         0.046200         0.913074         1.418593
 H        -0.209552         1.107169        -0.472344
 H        -0.543893        -0.340237         0.373877
 H         2.214514        -0.052516         2.186152
 H         1.369812        -1.454189         1.423134
 H         4.116260        -1.475694         1.879439
 H         3.212942        -2.250178         0.482474
 H         5.228824        -0.634807        -0.552150
 H         2.228681         2.007271        -0.975127
 H         3.355831        -0.460416        -2.395503
