19
Iteration:  3015
 C         0.151846         0.518702         0.187903
 C         1.594642         0.054015         0.061675
 C         2.286207        -0.517010         1.353121
 C         3.656615        -1.200023         0.966541
 C         4.079813        -0.425359        -0.204214
 O         3.938645         0.943931         0.203689
 C         2.706917         1.017552        -0.442218
 C         3.041923        -0.203409        -1.276628
 O         1.778030        -0.833187        -1.022227
 H        -0.018133         1.094722         1.186767
 H         0.011743         1.083078        -0.730483
 H        -0.582738        -0.295684         0.423703
 H         2.354683         0.202833         2.144257
 H         1.668733        -1.381254         1.793428
 H         4.453973        -1.048842         1.763579
 H         3.557891        -2.285961         0.857516
 H         5.083271        -0.658245        -0.580954
 H         2.407754         1.898605        -0.908963
 H         3.394347        -0.088550        -2.280160
