19
Iteration:  1643
 C         0.240299         0.590784         0.214801
 C         1.667696         0.045410         0.141024
 C         2.106914        -0.665278         1.401850
 C         3.512805        -1.208107         1.031130
 C         4.178633        -0.315908        -0.110755
 O         3.983723         1.156117         0.061526
 C         2.689289         0.960764        -0.549708
 C         3.068269        -0.219739        -1.328399
 O         1.814597        -0.972147        -0.979617
 H         0.190377         1.314610         1.075952
 H        -0.041415         0.990708        -0.723993
 H        -0.493545        -0.223094         0.459492
 H         2.050839         0.172691         2.184886
 H         1.482766        -1.516843         1.758420
 H         4.320009        -1.520571         1.757468
 H         3.324159        -2.133022         0.516710
 H         5.159563        -0.595946        -0.400688
 H         2.247706         1.944696        -0.846048
 H         3.439239        -0.401117        -2.365532
