19
Iteration:    44
 C         0.191537         0.539895         0.101412
 C         1.635994         0.025647         0.140064
 C         2.216601        -0.485225         1.387867
 C         3.588820        -1.194610         1.063613
 C         4.102610        -0.385836        -0.126260
 O         4.027643         1.047403         0.147335
 C         2.724124         0.980309        -0.509163
 C         2.995047        -0.294717        -1.330432
 O         1.750210        -0.885846        -0.995688
 H         0.063146         1.564915         0.459139
 H        -0.074013         0.448458        -0.912602
 H        -0.437488        -0.124270         0.649958
 H         2.382444         0.284496         2.167202
 H         1.579127        -1.258014         1.875290
 H         4.248463        -1.163061         1.850502
 H         3.472052        -2.222606         0.688043
 H         5.108314        -0.685010        -0.387180
 H         2.424901         2.008688        -0.893774
 H         3.346926        -0.436354        -2.318911
