19
Iteration:  2381
 C         0.190563         0.613187         0.168825
 C         1.625889         0.124293         0.235303
 C         2.239535        -0.771759         1.355872
 C         3.609621        -1.206199         0.961024
 C         4.150610        -0.331374        -0.150726
 O         4.010102         1.120742         0.098074
 C         2.652246         1.032123        -0.457922
 C         2.977951        -0.238268        -1.272335
 O         1.800690        -0.963089        -1.023388
 H         0.064456         1.412201         0.952901
 H        -0.089894         0.918150        -0.748995
 H        -0.489747        -0.196677         0.480268
 H         2.227259        -0.156028         2.301330
 H         1.464077        -1.668700         1.417357
 H         4.290822        -1.423781         1.840530
 H         3.642315        -2.217235         0.312285
 H         5.252320        -0.290392        -0.358294
 H         2.221077         1.898745        -0.838768
 H         3.107433        -0.232499        -2.305102
