19
Iteration:   768charge 0 multiplicity 1
 C         0.124082         0.442783         0.229546
 C         1.626207         0.066035         0.106200
 C         2.270339        -0.421802         1.348115
 C         3.542007        -1.213600         0.967215
 C         4.063269        -0.465335        -0.283608
 O         3.997700         0.928709         0.308160
 C         2.657261         1.099903        -0.522464
 C         3.009676        -0.152180        -1.388335
 O         1.920972        -0.943120        -0.995640
 H         0.087031         1.425102         0.620627
 H        -0.544344         0.575688        -0.728318
 H        -0.413596        -0.226939         0.991988
 H         2.480094         0.582105         1.820820
 H         1.605011        -1.011316         1.926600
 H         4.223255        -1.179779         1.780850
 H         3.397233        -2.330354         1.083335
 H         5.092095        -0.679962        -0.529552
 H         2.650553         2.193843        -0.629672
 H         3.230393        -0.167740        -2.490091
