19
Iteration:  3916charge 0 multiplicity 1
 C         0.170943         0.507931         0.312300
 C         1.646350         0.082330         0.159821
 C         2.139560        -0.670443         1.356415
 C         3.484201        -1.243337         0.994367
 C         4.170351        -0.409051        -0.100397
 O         4.094879         1.079427         0.108161
 C         2.692940         1.078586        -0.555479
 C         3.043798        -0.190570        -1.310677
 O         1.793524        -0.866102        -1.084331
 H        -0.013401         1.299433         1.011326
 H        -0.213048         0.761648        -0.679406
 H        -0.341593        -0.421681         0.601542
 H         2.237531         0.155557         2.117468
 H         1.330191        -1.265998         1.786946
 H         4.183430        -1.616610         1.842631
 H         3.475795        -2.247657         0.576176
 H         5.278094        -0.518102        -0.206708
 H         2.396158         1.993721        -1.020599
 H         3.296061        -0.187119        -2.362953
