19
Iteration:  3470
 C         0.165817         0.550212         0.072041
 C         1.571042         0.110228         0.161034
 C         2.362233        -0.666134         1.435341
 C         3.686234        -1.276308         1.042660
 C         4.112629        -0.347281        -0.223648
 O         3.958583         1.000937         0.245349
 C         2.664521         1.046791        -0.507287
 C         2.964467        -0.246062        -1.287577
 O         1.722813        -0.842860        -1.078368
 H         0.155038         1.269104         0.826115
 H        -0.047057         1.115745        -0.835914
 H        -0.418737        -0.357002         0.327346
 H         2.552951         0.173381         2.175079
 H         1.776270        -1.369748         1.955361
 H         4.431695        -1.286784         1.854792
 H         3.606206        -2.316972         0.712893
 H         5.096880        -0.438761        -0.494099
 H         2.445035         2.095013        -0.834766
 H         3.186223        -0.244480        -2.340989
