19
Iteration:  2566charge 0 multiplicity 1
 C         0.146350         0.501071         0.389614
 C         1.598551         0.084748         0.037707
 C         2.143580        -0.612429         1.361224
 C         3.496869        -1.294666         0.919787
 C         4.183203        -0.369799        -0.111571
 O         3.988142         1.122890         0.156637
 C         2.700927         1.076876        -0.594762
 C         3.081468        -0.147747        -1.347361
 O         1.881502        -0.973626        -1.026565
 H         0.241087         1.332567         1.226461
 H        -0.525703         0.715686        -0.425194
 H        -0.418951        -0.363475         0.976246
 H         2.330984         0.089516         2.097537
 H         1.452511        -1.396249         1.829277
 H         4.272507        -1.411376         1.693137
 H         3.430394        -2.261643         0.523376
 H         5.325772        -0.625764        -0.276776
 H         2.475611         2.085841        -0.864180
 H         3.309325        -0.179412        -2.396268
