19
Iteration:   429charge 0 multiplicity 1
 C         0.247105         0.560830         0.270406
 C         1.632507         0.089011         0.098977
 C         2.221773        -0.606284         1.354166
 C         3.556621        -1.254552         1.050650
 C         4.153274        -0.362515        -0.020393
 O         3.935691         1.155787         0.074898
 C         2.679129         1.014457        -0.607560
 C         3.090170        -0.327107        -1.256406
 O         1.780447        -0.921669        -1.061962
 H         0.126038         1.268065         1.025017
 H        -0.100175         1.018439        -0.780963
 H        -0.499340        -0.231203         0.635814
 H         2.285138         0.220266         2.107948
 H         1.426500        -1.245495         1.747039
 H         4.097329        -1.574455         1.970864
 H         3.300398        -2.186437         0.417803
 H         5.223908        -0.513830        -0.219917
 H         2.275111         1.856893        -1.169752
 H         3.458987        -0.493324        -2.293558
