19
Iteration:  3054charge 0 multiplicity 1
 C         0.181235         0.482425         0.336224
 C         1.647613         0.089424         0.121182
 C         2.160575        -0.635250         1.378309
 C         3.483912        -1.227910         0.918293
 C         4.130319        -0.367199        -0.078312
 O         3.973731         1.090316         0.095627
 C         2.698924         1.019762        -0.632419
 C         3.107956        -0.218207        -1.275201
 O         1.849894        -0.869459        -1.002081
 H         0.376426         1.234652         1.109031
 H        -0.232688         1.088735        -0.549091
 H        -0.338678        -0.369038         0.910596
 H         2.192739        -0.055451         2.374163
 H         1.361056        -1.356613         1.527825
 H         4.139705        -1.615811         1.674912
 H         3.262012        -2.104577         0.255122
 H         5.176048        -0.594137        -0.316496
 H         2.495788         2.099078        -1.054321
 H         3.481593        -0.345415        -2.320074
