19
Iteration:  1861charge 0 multiplicity 1
 C         0.196624         0.559757         0.274485
 C         1.596531        -0.006024         0.133537
 C         2.250764        -0.539441         1.382219
 C         3.534967        -1.235429         0.970201
 C         4.174032        -0.339499        -0.138733
 O         3.936861         1.070227         0.184049
 C         2.641232         0.961359        -0.504916
 C         3.078910        -0.261496        -1.357432
 O         1.842009        -0.882172        -1.079872
 H         0.243819         1.477531         0.948006
 H        -0.183492         0.800905        -0.737288
 H        -0.445388        -0.153671         0.841755
 H         2.409709         0.327103         2.085246
 H         1.536102        -1.192830         1.891743
 H         4.268987        -1.361937         1.808714
 H         3.255020        -2.181008         0.482165
 H         5.088028        -0.724563        -0.507755
 H         2.220247         1.844011        -0.869527
 H         3.486297        -0.287961        -2.396284
