19
Iteration:   973
 C         0.167409         0.607066         0.250377
 C         1.586580         0.035391         0.118307
 C         2.151963        -0.760220         1.336587
 C         3.667336        -1.138896         1.084961
 C         4.104937        -0.337253        -0.209036
 O         4.027502         1.059278         0.126340
 C         2.710147         1.023319        -0.565611
 C         3.011962        -0.229017        -1.304922
 O         1.793743        -0.921667        -0.996981
 H         0.222011         1.552060         0.803415
 H        -0.157848         0.944799        -0.786312
 H        -0.465297        -0.062883         0.844781
 H         1.958813        -0.194430         2.323904
 H         1.592122        -1.710119         1.285723
 H         4.389427        -0.820632         1.963311
 H         3.752214        -2.230977         1.025554
 H         5.148290        -0.505064        -0.541934
 H         2.331974         2.075684        -0.849095
 H         3.301624        -0.428983        -2.342011
