19
Iteration:  2976charge 0 multiplicity 1
 C         0.236878         0.581386         0.177820
 C         1.606921         0.000999         0.159351
 C         2.205918        -0.680341         1.356404
 C         3.579280        -1.230544         0.953010
 C         4.085337        -0.370931        -0.184263
 O         4.023979         1.091920         0.099938
 C         2.658861         1.019547        -0.485213
 C         3.050786        -0.205997        -1.235496
 O         1.787270        -0.877183        -0.934809
 H        -0.013452         1.134288         1.051415
 H        -0.026313         1.192238        -0.673394
 H        -0.382953        -0.264910         0.030572
 H         2.242074         0.077661         2.167376
 H         1.537335        -1.488551         1.598578
 H         4.352480        -1.243415         1.703369
 H         3.401793        -2.249974         0.546449
 H         5.144942        -0.571159        -0.429400
 H         2.407803         2.044357        -0.876500
 H         3.286513        -0.207287        -2.327705
