19
Iteration:  2413charge 0 multiplicity 1
 C         0.163634         0.467533         0.224333
 C         1.623938         0.055599         0.123330
 C         2.221894        -0.619952         1.369372
 C         3.581020        -1.203398         0.990412
 C         4.090066        -0.435094        -0.276388
 O         4.006029         1.027408         0.188837
 C         2.630668         1.063566        -0.498863
 C         3.052061        -0.172569        -1.290268
 O         1.863909        -0.840484        -1.004410
 H         0.221019         1.300585         0.967798
 H        -0.382391         0.882894        -0.534687
 H        -0.334752        -0.402293         0.722794
 H         2.184455         0.089444         2.189747
 H         1.448084        -1.440511         1.642236
 H         4.307879        -1.081836         1.803868
 H         3.568078        -2.185289         0.570039
 H         5.190486        -0.622896        -0.478872
 H         2.275906         1.975816        -0.878168
 H         3.263163        -0.146481        -2.332471
