19
Iteration:  3658
 C         0.231993         0.481686         0.311884
 C         1.592505         0.124010         0.036490
 C         2.203563        -0.580582         1.326224
 C         3.519894        -1.185365         0.982964
 C         4.130244        -0.443798        -0.293700
 O         3.961506         0.967347         0.292820
 C         2.727691         1.073180        -0.437990
 C         3.060405        -0.209214        -1.374044
 O         1.814295        -0.880091        -1.066261
 H         0.136868         1.028299         1.292186
 H        -0.373743         1.167611        -0.320166
 H        -0.387535        -0.501761         0.467059
 H         2.371330         0.387904         1.844811
 H         1.455147        -1.035017         1.989740
 H         4.255014        -1.178789         1.803180
 H         3.605858        -2.269934         0.710605
 H         5.131437        -0.700185        -0.519895
 H         2.403989         2.149336        -0.746242
 H         3.410307        -0.338013        -2.444127
