19
Iteration:  3574charge 0 multiplicity 1
 C         0.195737         0.634091         0.250862
 C         1.629469        -0.008618         0.096572
 C         2.252546        -0.618143         1.365692
 C         3.637781        -1.230136         1.001997
 C         4.125600        -0.449765        -0.282215
 O         3.898082         1.020294         0.233476
 C         2.685267         0.992477        -0.419679
 C         2.989679        -0.173499        -1.343506
 O         1.808528        -0.858923        -1.099668
 H         0.312428         1.371721         1.069455
 H        -0.056265         0.906728        -0.752265
 H        -0.509830        -0.060323         0.567347
 H         2.122618         0.167723         2.080520
 H         1.624090        -1.512221         1.757456
 H         4.290808        -0.866814         1.842914
 H         3.759291        -2.346149         1.007571
 H         5.262147        -0.551818        -0.341886
 H         2.397249         2.016279        -0.718900
 H         3.311209        -0.239531        -2.367673
