19
Iteration:  1598
 C         0.168071         0.612951         0.259407
 C         1.609630         0.098904         0.057002
 C         2.184230        -0.502781         1.313543
 C         3.639207        -1.119849         1.043546
 C         4.223409        -0.406427        -0.174858
 O         3.883087         0.966627         0.251502
 C         2.742718         1.033583        -0.516533
 C         3.023917        -0.369367        -1.376913
 O         1.783822        -0.948021        -1.043445
 H         0.046723         0.869228         1.343093
 H        -0.179729         1.231459        -0.508264
 H        -0.514097        -0.325369         0.187786
 H         2.136889         0.140486         2.303604
 H         1.628209        -1.447356         1.579347
 H         4.345538        -0.850528         1.940413
 H         3.803048        -2.196185         0.864931
 H         5.256989        -0.346236        -0.462451
 H         2.471111         1.978038        -1.031112
 H         3.254288        -0.292244        -2.482432
