19
Iteration:  2757charge 0 multiplicity 1
 C         0.123892         0.539007         0.126594
 C         1.598186         0.094689         0.142209
 C         2.190793        -0.673866         1.400943
 C         3.632777        -1.247803         0.901089
 C         4.127691        -0.314257        -0.201083
 O         4.056101         1.073907         0.155359
 C         2.691013         1.013176        -0.447683
 C         3.009217        -0.243823        -1.285092
 O         1.792541        -0.867963        -0.906775
 H         0.068656         1.372584         0.846904
 H        -0.084629         0.882662        -1.001757
 H        -0.578559        -0.223777         0.528612
 H         2.342410        -0.006825         2.258438
 H         1.479959        -1.434792         1.648053
 H         4.388876        -1.270578         1.626262
 H         3.559403        -2.207211         0.397536
 H         5.090562        -0.738869        -0.461604
 H         2.376481         2.022525        -0.795542
 H         3.314217        -0.464489        -2.334000
