19
Iteration:   843charge 0 multiplicity 1
 C         0.230563         0.636569         0.245131
 C         1.599280         0.033405         0.113024
 C         2.158164        -0.718666         1.326765
 C         3.633385        -1.031101         1.044919
 C         4.132922        -0.387445        -0.244701
 O         3.962091         0.987125         0.145209
 C         2.668407         0.945987        -0.522502
 C         2.973609        -0.214836        -1.354634
 O         1.867570        -0.929722        -0.947961
 H         0.123440         0.968459         1.266540
 H         0.116985         1.678789        -0.361345
 H        -0.696851        -0.000219        -0.050147
 H         2.007853        -0.257992         2.379462
 H         1.515191        -1.602758         1.222296
 H         4.199519        -0.648588         2.009485
 H         3.902853        -2.172041         1.114170
 H         5.177694        -0.523634        -0.506836
 H         2.393793         2.040423        -0.792346
 H         3.246973        -0.346755        -2.408265
