19
Iteration:  1747charge 0 multiplicity 1
 C         0.170158         0.616174         0.283296
 C         1.609049         0.120377         0.113633
 C         2.145932        -0.679876         1.321879
 C         3.589757        -1.171850         0.993420
 C         4.124275        -0.343046        -0.198055
 O         3.910961         1.125268         0.177850
 C         2.751167         0.986557        -0.638121
 C         3.090700        -0.297232        -1.298804
 O         1.848300        -0.971731        -0.910269
 H         0.096999         1.128006         1.237523
 H        -0.210420         1.312377        -0.521841
 H        -0.442848        -0.329731         0.281558
 H         2.208604        -0.114717         2.227053
 H         1.445591        -1.485804         1.460870
 H         4.411066        -1.212721         1.769519
 H         3.471933        -2.145133         0.389555
 H         5.236874        -0.638310        -0.383446
 H         2.656460         2.144614        -1.016876
 H         3.221297        -0.657910        -2.320845
