19
Iteration:    34
 C         0.143263         0.535869         0.074161
 C         1.573979         0.093498         0.078899
 C         2.251909        -0.473635         1.442579
 C         3.623465        -1.101592         1.008477
 C         4.095151        -0.432471        -0.219558
 O         3.970994         0.886948         0.219095
 C         2.734105         1.055533        -0.509432
 C         3.020007        -0.231806        -1.262146
 O         1.823803        -0.963553        -0.976706
 H         0.152296         1.506709         0.500586
 H        -0.317360         0.623574        -0.907029
 H        -0.494089        -0.072683         0.717064
 H         2.337720         0.367813         2.128521
 H         1.599129        -1.221880         1.864166
 H         4.357157        -0.959260         1.757975
 H         3.485168        -2.157725         0.886614
 H         5.061402        -0.674734        -0.668497
 H         2.558273         2.049752        -0.893488
 H         3.258387        -0.361265        -2.288742
