19
Iteration:  3138charge 0 multiplicity 1
 C         0.165743         0.548966         0.250423
 C         1.586152         0.023811         0.157247
 C         2.156627        -0.640838         1.378295
 C         3.559475        -1.191480         0.947324
 C         4.154160        -0.321545        -0.203240
 O         4.045598         1.010210         0.142570
 C         2.736124         1.097124        -0.542303
 C         3.014637        -0.204977        -1.278333
 O         1.851251        -0.917032        -0.950081
 H        -0.080770         1.133390         1.134380
 H        -0.367510         0.996806        -0.561239
 H        -0.435484        -0.303852         0.247520
 H         2.177142         0.000058         2.232448
 H         1.447100        -1.523066         1.342388
 H         4.307585        -1.302952         1.772824
 H         3.153918        -2.165265         0.555334
 H         5.135461        -0.563877        -0.698912
 H         2.505848         2.082623        -0.920025
 H         3.356620        -0.347876        -2.364560
