19
Iteration:  3707charge 0 multiplicity 1
 C         0.222850         0.544137         0.199466
 C         1.646693         0.066392         0.194483
 C         2.216152        -0.717217         1.365820
 C         3.538447        -1.319344         0.871073
 C         4.136974        -0.299772        -0.087339
 O         4.039958         1.139052         0.101107
 C         2.724303         0.997564        -0.524096
 C         3.018849        -0.241785        -1.271879
 O         1.716151        -0.811164        -0.957880
 H        -0.109270         1.008481         1.117505
 H         0.079811         1.184335        -0.720383
 H        -0.518493        -0.184498         0.050605
 H         2.056785        -0.079036         2.301299
 H         1.412240        -1.461494         1.669228
 H         4.219712        -1.381549         1.765919
 H         3.656416        -2.344161         0.468163
 H         5.198654        -0.566708        -0.445183
 H         2.373092         1.927513        -0.919584
 H         3.499815        -0.473067        -2.219628
