19
Iteration:  1624charge 0 multiplicity 1
 C         0.231738         0.590135         0.244545
 C         1.622332         0.009915         0.098973
 C         2.226908        -0.641342         1.370466
 C         3.570857        -1.232426         1.053856
 C         4.105382        -0.382584        -0.080887
 O         3.923920         1.137970         0.104817
 C         2.662721         1.026504        -0.561430
 C         3.078232        -0.354880        -1.247316
 O         1.793465        -0.877547        -1.089018
 H         0.243691         1.146738         1.200384
 H         0.139311         1.338899        -0.604509
 H        -0.593592        -0.071801         0.303310
 H         2.361893         0.051757         2.133718
 H         1.574269        -1.410296         1.805925
 H         4.223651        -0.936372         1.870960
 H         3.755161        -2.256870         0.688702
 H         5.163774        -0.488300        -0.360758
 H         2.196874         1.860474        -1.259917
 H         3.491086        -0.358903        -2.244355
