19
Iteration:  3313
 C         0.170265         0.518691         0.269090
 C         1.633836         0.088587         0.065256
 C         2.260890        -0.616285         1.346778
 C         3.563940        -1.269502         1.007868
 C         4.083100        -0.383296        -0.189594
 O         3.937357         1.054763         0.188708
 C         2.742332         1.046916        -0.533109
 C         3.113516        -0.216435        -1.303565
 O         1.784427        -0.863807        -0.992694
 H        -0.183839         1.174743         1.192214
 H        -0.278207         1.110311        -0.607490
 H        -0.496723        -0.328168         0.435400
 H         2.333524         0.145954         2.103301
 H         1.444218        -1.287659         1.754269
 H         4.338024        -1.499098         1.763127
 H         3.485570        -2.218681         0.436586
 H         5.185336        -0.643620        -0.373720
 H         2.507854         1.953689        -1.039445
 H         3.319861        -0.256861        -2.423711
