19
Iteration:  1978charge 0 multiplicity 1
 C         0.181318         0.487610         0.240580
 C         1.635574         0.052126         0.058603
 C         2.336399        -0.473417         1.360869
 C         3.609994        -1.262415         0.930556
 C         4.138171        -0.408931        -0.169733
 O         3.888842         1.049025         0.276426
 C         2.679304         1.043372        -0.543191
 C         3.037801        -0.262856        -1.306203
 O         1.749121        -0.894235        -1.041989
 H        -0.046414         1.158775         1.130093
 H        -0.103871         0.980991        -0.605712
 H        -0.549454        -0.368379         0.412916
 H         2.451065         0.436462         1.976219
 H         1.692499        -1.191529         1.864971
 H         4.297400        -1.138498         1.754997
 H         3.419660        -2.333548         0.813037
 H         5.139047        -0.640657        -0.597377
 H         2.690162         2.196788        -0.751886
 H         3.392099        -0.456906        -2.279366
