19
Iteration:  1458
 C         0.191558         0.584657         0.235051
 C         1.657467         0.109334         0.194443
 C         2.075144        -0.756002         1.345380
 C         3.575514        -1.175047         1.059998
 C         4.131306        -0.357356        -0.116469
 O         4.010138         1.112233        -0.008314
 C         2.752244         1.016906        -0.568175
 C         3.067232        -0.256534        -1.256374
 O         1.828686        -0.909187        -0.994753
 H         0.063844         1.240259         1.152326
 H        -0.141465         1.029051        -0.648961
 H        -0.532440        -0.196491         0.515111
 H         1.936659        -0.273989         2.253287
 H         1.496554        -1.635760         1.487853
 H         3.953943        -1.064580         2.093355
 H         3.729697        -2.102375         0.593877
 H         5.160618        -0.615578        -0.325832
 H         2.251786         1.939901        -1.105738
 H         3.277718        -0.329352        -2.368805
