19
Iteration:  2497charge 0 multiplicity 1
 C         0.227977         0.568506         0.194045
 C         1.578696        -0.039295         0.179618
 C         2.126399        -0.702049         1.373420
 C         3.591724        -1.161495         0.891157
 C         4.144765        -0.332979        -0.254860
 O         4.016708         1.102943         0.097966
 C         2.687191         1.047574        -0.432212
 C         3.025787        -0.178124        -1.257019
 O         1.820940        -0.925449        -0.908199
 H         0.093355         1.063719         1.120874
 H         0.018352         1.193391        -0.728974
 H        -0.570017        -0.233786         0.192936
 H         2.061837        -0.177665         2.327027
 H         1.641154        -1.629670         1.510592
 H         4.312983        -1.209823         1.718275
 H         3.604061        -2.201084         0.483285
 H         5.179701        -0.612147        -0.381659
 H         2.281614         1.986474        -0.941702
 H         3.401969        -0.213848        -2.335396
