19
Iteration:  4368
 C         0.179147         0.500658         0.215360
 C         1.617079         0.062784         0.127947
 C         2.168358        -0.626626         1.548811
 C         3.524851        -1.266577         0.988062
 C         4.126657        -0.406405        -0.113112
 O         4.015343         1.149723         0.060243
 C         2.803113         1.054730        -0.587679
 C         3.042940        -0.246812        -1.284524
 O         1.796084        -0.886560        -1.054826
 H         0.006187         1.099577         1.147509
 H        -0.147041         1.141805        -0.616432
 H        -0.480804        -0.295048         0.464359
 H         2.295827         0.139111         2.266849
 H         1.405670        -1.354043         1.810286
 H         4.199632        -1.641315         1.682462
 H         3.235034        -2.116238         0.355687
 H         5.114408        -0.715419        -0.324445
 H         2.328882         1.932684        -1.073581
 H         3.534814        -0.031704        -2.212940
