19
Iteration:  3532
 C         0.172831         0.471206         0.350794
 C         1.607503         0.139105         0.138639
 C         2.185338        -0.659549         1.281106
 C         3.494364        -1.262697         0.965990
 C         4.172001        -0.396214        -0.146066
 O         3.992338         1.146180         0.153149
 C         2.729324         1.044469        -0.573885
 C         3.106298        -0.294631        -1.327132
 O         1.839095        -0.815374        -0.986414
 H        -0.013480         0.990173         1.374562
 H        -0.271038         1.159916        -0.443345
 H        -0.480009        -0.389106         0.372952
 H         2.272785        -0.066635         2.157596
 H         1.401569        -1.438501         1.419104
 H         4.146235        -1.398564         1.820887
 H         3.190478        -2.213230         0.568266
 H         5.244529        -0.590250        -0.492173
 H         2.302577         1.895812        -1.041726
 H         3.315698        -0.505684        -2.349241
