19
Iteration:  3167charge 0 multiplicity 1
 C         0.196412         0.506550         0.335360
 C         1.600516         0.093403         0.090143
 C         2.259115        -0.588131         1.307702
 C         3.512047        -1.292747         0.951542
 C         4.194722        -0.374277        -0.077241
 O         3.949520         1.055213         0.192486
 C         2.705311         1.069564        -0.616410
 C         3.048794        -0.235437        -1.315778
 O         1.792741        -0.864379        -1.060528
 H        -0.057904         0.920653         1.372405
 H        -0.355376         1.166137        -0.329526
 H        -0.327454        -0.521215         0.371460
 H         2.595923         0.175737         2.018589
 H         1.489166        -1.180592         1.808867
 H         4.141227        -1.327535         1.849887
 H         3.353847        -2.290882         0.659174
 H         5.255478        -0.587475        -0.223297
 H         2.482513         2.003600        -1.104944
 H         3.360439        -0.328016        -2.315378
