19
Iteration:  3811
 C         0.127022         0.471836         0.276297
 C         1.602760         0.173835         0.106019
 C         2.108411        -0.603279         1.341144
 C         3.517424        -1.277264         0.924508
 C         4.142321        -0.375427        -0.199374
 O         4.087378         1.059609         0.148576
 C         2.720351         1.072903        -0.481799
 C         3.061228        -0.235829        -1.328828
 O         1.868764        -0.920181        -0.924321
 H         0.145753         1.325654         0.988036
 H        -0.294369         0.876048        -0.622502
 H        -0.467597        -0.398191         0.682605
 H         2.037931         0.017107         2.185393
 H         1.422435        -1.402891         1.403359
 H         4.219368        -1.299839         1.654930
 H         3.312539        -2.176561         0.437810
 H         5.113402        -0.605042        -0.497618
 H         2.506178         2.119628        -0.791961
 H         3.376091        -0.179681        -2.352768
