19
Iteration:  3290charge 0 multiplicity 1
 C         0.248378         0.556678         0.334558
 C         1.569235         0.079506         0.111687
 C         2.170221        -0.516521         1.304363
 C         3.598280        -1.196656         0.893640
 C         4.164925        -0.412538        -0.162622
 O         3.924394         0.958451         0.343247
 C         2.665437         1.014555        -0.563552
 C         3.057560        -0.245999        -1.363441
 O         1.847731        -0.924993        -1.124687
 H         0.062081         1.338280         1.300621
 H        -0.274933         1.123145        -0.503106
 H        -0.504536        -0.126292         0.784417
 H         2.205774         0.330003         1.947555
 H         1.554314        -1.259005         1.948069
 H         4.340801        -0.960090         1.715332
 H         3.632374        -2.311981         0.763733
 H         5.345056        -0.456754        -0.337440
 H         2.343472         1.946043        -0.932957
 H         3.270365        -0.287640        -2.515547
