19
Iteration:  2638charge 0 multiplicity 1
 C         0.164660         0.596132         0.181884
 C         1.596453         0.068022         0.178308
 C         2.234622        -0.641577         1.410348
 C         3.638394        -1.083100         0.957051
 C         4.141520        -0.446028        -0.313850
 O         3.938915         0.967678         0.221522
 C         2.645754         1.011692        -0.388602
 C         3.090141        -0.178183        -1.373485
 O         1.793933        -0.951559        -1.037537
 H        -0.014575         0.983809         1.112589
 H        -0.087072         1.230514        -0.714191
 H        -0.527783        -0.217990         0.124239
 H         2.464321         0.210697         2.291001
 H         1.542526        -1.354583         1.834945
 H         4.303768        -0.844980         1.789501
 H         3.729818        -2.260769         0.834759
 H         5.099611        -0.700875        -0.589069
 H         2.304969         2.073414        -0.636089
 H         3.335722        -0.079482        -2.484283
