19
Iteration:  2701
 C         0.178891         0.512339         0.371539
 C         1.607633         0.099956         0.089826
 C         2.187481        -0.559888         1.278134
 C         3.578928        -1.185077         0.954230
 C         4.201746        -0.386131        -0.163026
 O         3.895720         1.027414         0.229548
 C         2.700852         1.023486        -0.570700
 C         3.075587        -0.208852        -1.355262
 O         1.830000        -0.950938        -1.009734
 H         0.350007         1.384774         1.079964
 H        -0.326165         1.065219        -0.586645
 H        -0.518442        -0.245055         0.702238
 H         2.201911         0.088222         2.124633
 H         1.496996        -1.302878         1.705834
 H         4.248770        -1.438520         1.717211
 H         3.400528        -2.177582         0.543446
 H         5.263782        -0.650846        -0.393737
 H         2.515118         2.051955        -0.924342
 H         3.398689        -0.322701        -2.414914
