19
Iteration:   758charge 0 multiplicity 1
 C         0.156034         0.468105         0.212279
 C         1.534212         0.011019         0.087814
 C         2.222686        -0.453720         1.397522
 C         3.544826        -1.189193         0.993794
 C         4.138962        -0.437448        -0.253593
 O         4.031569         0.892722         0.191880
 C         2.707191         1.076765        -0.479098
 C         3.061528        -0.092204        -1.349151
 O         1.834195        -0.901843        -0.960502
 H         0.036567         1.417717         0.623810
 H        -0.211585         0.249535        -0.834934
 H        -0.425134        -0.244354         0.879950
 H         2.396662         0.365737         2.143736
 H         1.523151        -1.090687         1.910656
 H         4.318544        -0.918905         1.636988
 H         3.293959        -2.236243         0.699839
 H         5.185237        -0.647126        -0.556115
 H         2.292458         2.056308        -0.754504
 H         3.372602        -0.183251        -2.436803
