19
Iteration:   500charge 0 multiplicity 1
 C         0.135657         0.525777         0.087318
 C         1.622483         0.070979         0.143430
 C         2.252360        -0.614694         1.394799
 C         3.720830        -1.089676         1.106642
 C         4.137436        -0.489304        -0.179782
 O         3.962080         1.047535         0.189042
 C         2.719784         1.009258        -0.539933
 C         2.982423        -0.318702        -1.312656
 O         1.724694        -0.812643        -1.032574
 H        -0.199880         1.232963         0.988802
 H        -0.062707         1.002595        -0.823881
 H        -0.592962        -0.242193         0.254523
 H         2.182272         0.134456         2.199560
 H         1.716628        -1.522157         1.789925
 H         4.462013        -0.842171         1.871240
 H         3.723988        -2.128449         0.932453
 H         5.123894        -0.743125        -0.628027
 H         2.399789         2.022049        -0.866950
 H         3.421424        -0.566616        -2.291356
