19
Iteration:  3405
 C         0.219554         0.536770         0.322994
 C         1.609572         0.039624         0.086935
 C         2.234581        -0.686533         1.349847
 C         3.584067        -1.255358         1.014667
 C         4.166233        -0.349326        -0.118313
 O         3.904413         1.083974         0.170093
 C         2.683197         1.018735        -0.589442
 C         3.100428        -0.286170        -1.267388
 O         1.758031        -0.808440        -1.111851
 H         0.351074         1.348397         1.017266
 H        -0.147301         1.036181        -0.624327
 H        -0.613845        -0.103767         0.788000
 H         2.362867         0.119964         2.172373
 H         1.583203        -1.408058         1.799568
 H         4.209330        -1.305176         1.921956
 H         3.429012        -2.334788         0.769805
 H         5.178204        -0.474021        -0.436735
 H         2.439955         1.878016        -1.346667
 H         3.450508        -0.150114        -2.261246
