19
Iteration:   508charge 0 multiplicity 1
 C         0.163242         0.563165         0.163455
 C         1.592608         0.021375         0.138366
 C         2.242024        -0.640364         1.435425
 C         3.714605        -1.105426         1.126657
 C         4.079836        -0.420525        -0.130008
 O         3.978838         1.053563         0.074310
 C         2.742503         1.013066        -0.532602
 C         3.035190        -0.284770        -1.281318
 O         1.729297        -0.853400        -1.075771
 H        -0.002197         1.301028         1.003635
 H         0.138240         1.050562        -0.846878
 H        -0.590908        -0.237516         0.135286
 H         1.978533        -0.002701         2.245539
 H         1.634721        -1.589429         1.538030
 H         4.302334        -0.937184         2.057841
 H         3.707404        -2.172065         0.990418
 H         5.128318        -0.704431        -0.525626
 H         2.227179         1.932976        -0.885286
 H         3.323291        -0.372781        -2.403242
