19
Iteration:  3677charge 0 multiplicity 1
 C         0.158140         0.483236         0.314367
 C         1.611200         0.053692         0.104012
 C         2.260646        -0.523114         1.350024
 C         3.588180        -1.227810         0.951566
 C         4.119601        -0.459959        -0.173596
 O         3.969871         0.948726         0.228360
 C         2.702109         1.004490        -0.518776
 C         3.033496        -0.120493        -1.340702
 O         1.799769        -0.858947        -1.079005
 H         0.012639         1.067167         1.239827
 H        -0.063118         1.406652        -0.356566
 H        -0.660237        -0.328284         0.228418
 H         2.213025         0.388996         2.079229
 H         1.549455        -1.310034         1.524577
 H         4.267900        -0.991691         1.802446
 H         3.488809        -2.302674         0.905728
 H         5.163466        -0.657855        -0.514127
 H         2.580062         2.054303        -0.841100
 H         3.470130        -0.062881        -2.375277
