19
Iteration:  1221charge 0 multiplicity 1
 C         0.157925         0.417470         0.209877
 C         1.536919         0.069865         0.117507
 C         2.310833        -0.403556         1.364535
 C         3.583573        -1.172054         0.977557
 C         4.073799        -0.482671        -0.289573
 O         3.970482         0.939583         0.219011
 C         2.701538         1.032023        -0.472201
 C         3.048421        -0.170039        -1.301145
 O         1.860818        -0.902796        -0.999090
 H        -0.021524         1.233211         1.031727
 H        -0.106891         0.797677        -0.847389
 H        -0.519049        -0.464920         0.245531
 H         2.522151         0.495228         2.078503
 H         1.429351        -0.902924         1.956661
 H         4.319757        -0.963568         1.729427
 H         3.310591        -2.329333         0.996854
 H         5.151095        -0.678264        -0.553745
 H         2.445242         2.077968        -0.717316
 H         3.231970        -0.125357        -2.389898
