19
Iteration:     9
 C         0.138568         0.582693         0.169924
 C         1.621264         0.093945         0.106818
 C         2.210772        -0.490477         1.366296
 C         3.573365        -1.184263         1.011704
 C         4.139769        -0.499436        -0.177754
 O         3.930640         1.043279         0.197819
 C         2.734224         0.945378        -0.520603
 C         3.077611        -0.225452        -1.370893
 O         1.867642        -0.936804        -0.934756
 H        -0.087020         1.472604         0.873672
 H        -0.119240         0.897645        -0.764867
 H        -0.501983        -0.192569         0.422442
 H         2.345878         0.396803         2.079415
 H         1.376416        -1.197205         1.769920
 H         4.193336        -0.974272         1.794042
 H         3.542916        -2.323044         0.933623
 H         5.125925        -0.687062        -0.541883
 H         2.339138         1.956785        -1.067221
 H         3.087566        -0.498113        -2.402581
