19
Iteration:  2592
 C         0.224875         0.485919         0.276472
 C         1.655776         0.055719         0.197280
 C         2.195958        -0.647954         1.395301
 C         3.520560        -1.270644         0.859160
 C         4.145767        -0.343195        -0.073794
 O         3.957473         1.168568         0.090667
 C         2.694163         0.997693        -0.534237
 C         3.059638        -0.248094        -1.250181
 O         1.801345        -0.832173        -1.047223
 H         0.056577         1.221258         1.093330
 H        -0.109444         0.778422        -0.790945
 H        -0.442660        -0.295446         0.527024
 H         2.349129         0.132973         2.294478
 H         1.514831        -1.486224         1.714029
 H         4.336799        -1.517040         1.535028
 H         3.297258        -2.262926         0.306864
 H         5.171079        -0.536168        -0.336674
 H         2.336445         1.981212        -0.884259
 H         3.405483        -0.514965        -2.266453
