19
Iteration:  4667charge 0 multiplicity 1
 C         0.172234         0.538357         0.253904
 C         1.626880         0.063478         0.141902
 C         2.163593        -0.650889         1.355168
 C         3.591236        -1.283786         1.012738
 C         4.202615        -0.308234        -0.085506
 O         4.030014         1.120126         0.078446
 C         2.692844         0.970049        -0.576362
 C         3.057205        -0.267669        -1.272712
 O         1.743888        -0.819906        -0.980111
 H        -0.004989         1.626181         0.554592
 H        -0.284793         0.555392        -0.775205
 H        -0.400686        -0.213454         0.996712
 H         2.082540         0.012284         2.238488
 H         1.490598        -1.563535         1.473083
 H         4.285966        -1.577819         1.826223
 H         3.353972        -2.105579         0.305951
 H         5.271147        -0.573394        -0.425768
 H         2.533140         1.988054        -0.960701
 H         3.231552        -0.452454        -2.425258
