19
Iteration:  4000
 C         0.115178         0.577967         0.284611
 C         1.597011         0.021067         0.171207
 C         2.135806        -0.724398         1.396389
 C         3.531967        -1.249850         0.965336
 C         4.203769        -0.269277        -0.133684
 O         4.053185         1.137800         0.093126
 C         2.799769         1.004017        -0.581169
 C         3.079915        -0.275488        -1.294761
 O         1.736620        -0.894687        -1.026486
 H         0.075585         1.356264         1.133711
 H        -0.084741         1.325648        -0.589641
 H        -0.651598        -0.186575         0.491883
 H         2.189516        -0.110370         2.297096
 H         1.461393        -1.649368         1.617959
 H         4.171130        -1.320476         1.821313
 H         3.381397        -2.209981         0.355944
 H         5.313077        -0.544539        -0.142838
 H         2.404784         1.886017        -1.120494
 H         3.560156        -0.215362        -2.301062
