19
Iteration:   134
 C         0.175554         0.553193         0.066626
 C         1.539818         0.016766         0.151226
 C         2.273803        -0.608766         1.521022
 C         3.697405        -1.164359         1.152707
 C         4.127876        -0.424667        -0.078904
 O         4.001456         1.057910         0.035933
 C         2.761697         1.032657        -0.537213
 C         2.956747        -0.283746        -1.293110
 O         1.701461        -0.856837        -1.091527
 H        -0.102470         1.127684         0.806064
 H         0.073204         1.072333        -0.958801
 H        -0.515880        -0.341260         0.018395
 H         2.308417         0.267372         2.167381
 H         1.635006        -1.305991         2.001048
 H         4.348369        -0.922460         2.026585
 H         3.667046        -2.172776         0.988364
 H         5.178418        -0.659872        -0.449896
 H         2.478981         2.009341        -0.839658
 H         3.300844        -0.517172        -2.333808
