19
Iteration:  4608
 C         0.275587         0.582846         0.244942
 C         1.632678        -0.036443         0.108991
 C         2.225578        -0.560297         1.460011
 C         3.582150        -1.153721         0.972802
 C         4.134026        -0.417722        -0.225184
 O         3.946484         1.060540         0.208861
 C         2.676700         0.977141        -0.505796
 C         3.013300        -0.239411        -1.345443
 O         1.751850        -0.923852        -1.098214
 H         0.096294         1.011739         1.221994
 H         0.128458         1.339646        -0.560845
 H        -0.538844        -0.080263         0.072882
 H         2.330798         0.320498         2.053934
 H         1.566112        -1.225283         2.003649
 H         4.262485        -0.913835         1.793628
 H         3.631576        -2.281954         0.916978
 H         5.103734        -0.745470        -0.396007
 H         2.430423         2.024983        -0.723249
 H         3.348799        -0.244018        -2.354566
