19
Iteration:  1983
 C         0.189264         0.497889         0.237000
 C         1.616895         0.045399         0.061951
 C         2.330147        -0.532226         1.382817
 C         3.607894        -1.239549         0.946828
 C         4.129291        -0.436284        -0.166718
 O         3.917001         1.069230         0.263688
 C         2.690893         1.033242        -0.551214
 C         3.009664        -0.241992        -1.260689
 O         1.748939        -0.874437        -1.044970
 H         0.068401         1.232056         1.000827
 H        -0.204039         0.940033        -0.791718
 H        -0.432014        -0.370308         0.280126
 H         2.551596         0.405599         1.896826
 H         1.765835        -1.162549         2.115724
 H         4.295260        -1.242115         1.836381
 H         3.433605        -2.251495         0.461396
 H         5.119601        -0.416854        -0.625012
 H         2.446873         2.019082        -0.861638
 H         3.423404        -0.560903        -2.280844
