19
Iteration:   655charge 0 multiplicity 1
 C         0.174799         0.509217         0.248611
 C         1.620301         0.061526         0.141426
 C         2.269023        -0.540095         1.381539
 C         3.598155        -1.194479         1.083455
 C         4.163918        -0.417882        -0.115944
 O         3.944306         1.095891         0.115762
 C         2.713069         0.996958        -0.574815
 C         3.097338        -0.342826        -1.310122
 O         1.686027        -0.854749        -1.077098
 H        -0.064038         1.162996         1.100631
 H         0.038284         1.194596        -0.574446
 H        -0.394601        -0.375153         0.028928
 H         2.414062         0.258558         2.107209
 H         1.481800        -1.211904         1.697691
 H         4.293699        -1.275394         1.874230
 H         3.529845        -2.226988         0.839041
 H         5.171519        -0.567645        -0.442346
 H         2.307038         1.953044        -0.907890
 H         3.510716        -0.411110        -2.265865
