19
Iteration:  4138charge 0 multiplicity 1
 C         0.185106         0.577532         0.289239
 C         1.528397        -0.065122         0.120504
 C         2.208798        -0.590117         1.377551
 C         3.703024        -1.257594         1.041022
 C         4.177282        -0.380925        -0.156042
 O         3.996217         1.091363         0.215327
 C         2.749172         1.006190        -0.458817
 C         3.012854        -0.218476        -1.340720
 O         1.713193        -0.897940        -1.214323
 H         0.312951         1.612551         0.727095
 H        -0.185238         0.817866        -0.697262
 H        -0.455170         0.013780         0.967362
 H         2.256017         0.381943         2.008468
 H         1.402927        -1.138610         1.849272
 H         4.131509        -0.899033         2.012300
 H         3.664241        -2.367251         0.810459
 H         5.186952        -0.635885        -0.527382
 H         2.241861         1.987502        -0.864624
 H         3.334673        -0.503291        -2.452217
