19
Iteration:   582
 C         0.244761         0.568870         0.208069
 C         1.619574        -0.021069         0.075938
 C         2.308774        -0.542798         1.393986
 C         3.656524        -1.187490         1.038940
 C         4.113270        -0.375955        -0.105733
 O         3.879185         1.080700         0.214774
 C         2.689574         0.973707        -0.534000
 C         3.070344        -0.337563        -1.326489
 O         1.679098        -0.870994        -1.087537
 H         0.378603         1.518104         0.667304
 H        -0.062127         0.833591        -0.906305
 H        -0.550129        -0.077767         0.696092
 H         2.230823         0.493997         1.861206
 H         1.678688        -1.207455         1.960475
 H         4.341247        -1.120600         1.928890
 H         3.557248        -2.353417         0.914914
 H         5.146323        -0.471422        -0.435376
 H         2.386658         1.878576        -1.076241
 H         3.535621        -0.556576        -2.327169
