19
Iteration:  4991
 C         0.192760         0.480448         0.232761
 C         1.625093         0.057065         0.136224
 C         2.299230        -0.456053         1.382561
 C         3.625594        -1.165257         1.023893
 C         4.119901        -0.423256        -0.271600
 O         3.927659         0.985073         0.301431
 C         2.723620         1.002080        -0.557035
 C         3.006195        -0.218727        -1.360853
 O         1.748542        -0.913592        -1.041830
 H        -0.219053         0.693885         1.247089
 H         0.116888         1.536782        -0.271164
 H        -0.491608        -0.188312        -0.375556
 H         2.554135         0.232455         2.123161
 H         1.753307        -1.315184         1.898091
 H         4.269579        -0.989456         1.843144
 H         3.539528        -2.210086         0.797781
 H         5.044283        -0.696788        -0.789924
 H         2.286558         1.970225        -0.845723
 H         3.233465        -0.268901        -2.480863
