19
Iteration:  4360charge 0 multiplicity 1
 C         0.206333         0.556733         0.228940
 C         1.642675         0.035337         0.186054
 C         2.208649        -0.607420         1.425070
 C         3.480072        -1.219922         0.967329
 C         4.135065        -0.345476        -0.118667
 O         3.978890         1.104334         0.175429
 C         2.795295         1.014548        -0.621007
 C         3.028433        -0.258898        -1.327539
 O         1.785565        -0.914675        -1.035828
 H         0.107672         1.211463         1.044634
 H        -0.107819         1.058686        -0.694595
 H        -0.520718        -0.246084         0.392417
 H         2.361913         0.094275         2.220703
 H         1.563231        -1.472275         1.791170
 H         4.211229        -1.398007         1.737270
 H         3.314324        -2.265473         0.559091
 H         5.129913        -0.549652        -0.511038
 H         2.389289         1.955537        -0.964595
 H         3.379550        -0.291473        -2.362031
