19
Iteration:  4824
 C         0.245302         0.555984         0.214918
 C         1.586020         0.067704         0.107183
 C         2.283589        -0.603478         1.398761
 C         3.603440        -1.266188         0.985623
 C         4.147790        -0.418492        -0.190254
 O         3.920630         1.128655         0.169626
 C         2.671845         1.007832        -0.508441
 C         3.044835        -0.253839        -1.249844
 O         1.742750        -0.914014        -1.046202
 H         0.264963         1.227576         1.128576
 H        -0.171527         1.079617        -0.688934
 H        -0.418904        -0.322737         0.261480
 H         2.453556         0.249634         2.115743
 H         1.649492        -1.357427         1.809406
 H         4.288574        -1.151079         1.809244
 H         3.442261        -2.221328         0.631972
 H         5.202694        -0.367075        -0.436804
 H         2.421064         1.820992        -1.097561
 H         3.272455        -0.240303        -2.274996
