19
Iteration:  1966
 C         0.154217         0.475756         0.292608
 C         1.600647         0.125288         0.111231
 C         2.253763        -0.466091         1.309677
 C         3.597668        -1.202946         1.017947
 C         4.114302        -0.393528        -0.235258
 O         3.906798         0.933970         0.257712
 C         2.729057         1.050422        -0.537824
 C         3.082567        -0.237066        -1.398914
 O         1.822748        -0.912073        -1.018007
 H         0.181490         1.067260         1.259218
 H        -0.245847         1.107201        -0.472052
 H        -0.460735        -0.481188         0.323280
 H         2.458010         0.190636         2.170489
 H         1.437225        -1.161520         1.658531
 H         4.367880        -1.048876         1.756844
 H         3.461114        -2.292571         0.863169
 H         5.233051        -0.537854        -0.336082
 H         2.235660         2.019690        -1.009300
 H         3.289457        -0.211162        -2.436634
