19
Iteration:  3642charge 0 multiplicity 1
 C         0.137207         0.488392         0.306105
 C         1.626567         0.036149         0.137929
 C         2.228080        -0.544648         1.388625
 C         3.551994        -1.294122         0.920818
 C         4.104883        -0.392869        -0.113396
 O         3.990489         1.046012         0.207926
 C         2.779566         1.057342        -0.571622
 C         3.046341        -0.187804        -1.327946
 O         1.786840        -0.830561        -1.091088
 H         0.109001         1.131533         1.196737
 H        -0.157648         0.905108        -0.684433
 H        -0.516943        -0.333953         0.502760
 H         2.407084         0.046156         2.305021
 H         1.611252        -1.400999         1.696679
 H         4.282460        -1.468269         1.721877
 H         3.161698        -2.228966         0.559412
 H         5.170466        -0.605060        -0.443876
 H         2.469277         2.010325        -0.918441
 H         3.348369        -0.219777        -2.365335
