19
Iteration:   450charge 0 multiplicity 1
 C         0.219558         0.447762         0.221628
 C         1.656410         0.010350         0.118248
 C         2.193544        -0.502554         1.550790
 C         3.334965        -1.305688         0.950828
 C         4.112035        -0.322157        -0.084674
 O         4.016628         1.172514         0.054909
 C         2.717890         1.011587        -0.581395
 C         3.135514        -0.290174        -1.323816
 O         1.856678        -0.903948        -1.018406
 H         0.076521         1.203427         0.920840
 H        -0.251945         0.901982        -0.731560
 H        -0.506958        -0.347335         0.617815
 H         2.590623         0.426461         2.071729
 H         1.613965        -1.060050         2.260895
 H         4.059185        -1.560669         1.751034
 H         3.097584        -2.219765         0.258089
 H         5.147684        -0.562590        -0.229307
 H         2.307535         1.903042        -1.044348
 H         3.475205        -0.341239        -2.353434
