19
Iteration:  2032charge 0 multiplicity 1
 C         0.194532         0.544044         0.208257
 C         1.656951         0.057955         0.149770
 C         2.146602        -0.694363         1.340203
 C         3.593105        -1.181638         0.940241
 C         4.070404        -0.298577        -0.205257
 O         4.020739         1.095465         0.160219
 C         2.689300         1.013089        -0.529307
 C         3.000459        -0.238774        -1.312748
 O         1.860811        -0.964906        -0.899753
 H         0.347787         1.483325         0.863858
 H        -0.287102         0.857257        -0.650855
 H        -0.537981        -0.194785         0.667317
 H         1.996386         0.035060         2.182089
 H         1.401531        -1.504188         1.494783
 H         4.296972        -0.948842         1.696429
 H         3.591336        -2.203126         0.572673
 H         5.031875        -0.671433        -0.578441
 H         2.657568         2.056628        -0.853501
 H         3.201359        -0.194517        -2.324104
