19
Iteration:  3659charge 0 multiplicity 1
 C         0.232059         0.490424         0.313815
 C         1.590681         0.119362         0.032931
 C         2.199150        -0.571496         1.312332
 C         3.520350        -1.184994         0.983767
 C         4.127679        -0.438101        -0.295868
 O         3.966318         0.957288         0.296330
 C         2.717450         1.070684        -0.438355
 C         3.062493        -0.211669        -1.371714
 O         1.820686        -0.875897        -1.063775
 H         0.140555         0.985166         1.314318
 H        -0.357080         1.123792        -0.317194
 H        -0.350451        -0.473030         0.447588
 H         2.394075         0.349419         1.842844
 H         1.460895        -1.027096         2.012105
 H         4.263758        -1.140644         1.804593
 H         3.607764        -2.292323         0.753900
 H         5.126729        -0.694458        -0.528154
 H         2.365303         2.125593        -0.737261
 H         3.375113        -0.324174        -2.432995
