19
Iteration:   682
 C         0.255110         0.707296         0.354080
 C         1.553363        -0.035800         0.046235
 C         2.178418        -0.619733         1.349728
 C         3.618366        -1.057838         1.089985
 C         4.088389        -0.375411        -0.184007
 O         3.873410         1.006759         0.225581
 C         2.710804         0.987364        -0.575998
 C         3.076971        -0.279573        -1.378135
 O         1.837642        -1.072430        -1.120780
 H         0.439296         1.109511         1.358042
 H         0.169605         1.712449        -0.242975
 H        -0.654838         0.043955         0.284665
 H         2.254063         0.322771         2.022952
 H         1.393376        -1.283018         1.792343
 H         4.422733        -0.766016         1.871454
 H         3.750446        -2.214475         0.998948
 H         5.170436        -0.489378        -0.503294
 H         2.394137         2.003149        -0.921588
 H         3.516981        -0.093129        -2.438842
