19
Iteration:  1449charge 0 multiplicity 1
 C         0.185393         0.554497         0.234939
 C         1.586808         0.133724         0.142169
 C         2.101293        -0.732367         1.359499
 C         3.563198        -1.132646         1.016382
 C         4.176188        -0.388020        -0.167437
 O         4.015260         1.128685         0.073597
 C         2.712552         0.988530        -0.561452
 C         3.035919        -0.279708        -1.291465
 O         1.849674        -0.885297        -0.917269
 H         0.195074         1.262510         1.111844
 H        -0.035626         1.081446        -0.705098
 H        -0.460754        -0.302578         0.285034
 H         1.918046        -0.280794         2.334360
 H         1.448282        -1.591708         1.219819
 H         4.313065        -1.059037         1.811581
 H         3.485147        -2.262285         0.966642
 H         5.116518        -0.784429        -0.549136
 H         2.421106         1.912615        -1.100814
 H         3.443492        -0.363467        -2.336796
