19
Iteration:   304charge 0 multiplicity 1
 C         0.227939         0.473081         0.200113
 C         1.620220         0.024142         0.039342
 C         2.307818        -0.392452         1.437681
 C         3.575766        -1.177861         1.085952
 C         4.126341        -0.409421        -0.112601
 O         3.905063         1.030932         0.232103
 C         2.711610         0.955643        -0.517224
 C         3.061804        -0.278469        -1.380658
 O         1.740701        -0.928031        -1.137878
 H         0.003646         1.235255         1.073974
 H        -0.029934         1.007996        -0.663136
 H        -0.461235        -0.337748         0.308416
 H         2.607653         0.544789         1.920245
 H         1.514178        -0.826859         2.075019
 H         4.413351        -1.209807         1.825321
 H         3.204545        -2.246054         0.766583
 H         5.141429        -0.705736        -0.322620
 H         2.352291         1.989916        -0.777404
 H         3.358298        -0.213079        -2.421164
