19
Iteration:  2860
 C         0.199945         0.509257         0.166549
 C         1.657446         0.112578         0.215355
 C         2.155790        -0.651814         1.362852
 C         3.524531        -1.257732         0.916436
 C         4.114231        -0.342644        -0.208726
 O         4.037257         1.127416         0.178146
 C         2.731250         1.026813        -0.547431
 C         3.017409        -0.163345        -1.350850
 O         1.815299        -0.946732        -0.877098
 H         0.202618         1.279925         1.027541
 H        -0.095511         1.021101        -0.868674
 H        -0.451702        -0.442695         0.264533
 H         2.225359        -0.049468         2.340358
 H         1.451981        -1.538714         1.548997
 H         4.258357        -1.351747         1.823118
 H         3.456093        -2.270538         0.445403
 H         5.044158        -0.834780        -0.409207
 H         2.230557         1.937794        -0.894934
 H         3.251216        -0.205042        -2.410471
