19
Iteration:  4744
 C         0.149269         0.508132         0.207605
 C         1.671513         0.020602         0.128471
 C         2.147129        -0.644511         1.467386
 C         3.581510        -1.290544         1.009379
 C         4.122648        -0.377733        -0.166624
 O         4.056611         1.159224         0.096580
 C         2.719780         1.050211        -0.668676
 C         3.059097        -0.214762        -1.274748
 O         1.744269        -0.857314        -0.941276
 H         0.046524         0.980285         1.223235
 H        -0.074895         1.227513        -0.580885
 H        -0.643105        -0.325186         0.261997
 H         2.252395         0.075573         2.278191
 H         1.483946        -1.453740         1.786834
 H         4.315484        -1.488735         1.815306
 H         3.535187        -2.268628         0.538605
 H         5.174263        -0.455420        -0.501306
 H         2.333868         1.961437        -1.080411
 H         3.369801        -0.466197        -2.332287
