19
Iteration:   111
 C         0.231596         0.663659         0.218361
 C         1.619478         0.032354         0.046954
 C         2.214664        -0.517730         1.358767
 C         3.683423        -1.108631         1.105662
 C         4.108524        -0.427332        -0.169377
 O         3.872508         1.009333         0.230478
 C         2.680357         0.890570        -0.582686
 C         3.067965        -0.310581        -1.319951
 O         1.784064        -0.953002        -1.050536
 H         0.207397         1.131748         1.121656
 H         0.053133         1.413165        -0.611707
 H        -0.593380        -0.074228         0.211795
 H         2.150487         0.323527         2.069698
 H         1.506224        -1.265058         1.719963
 H         4.393858        -0.644583         1.770767
 H         3.691803        -2.161628         1.200291
 H         5.160292        -0.528861        -0.521587
 H         2.308333         1.816334        -1.045089
 H         3.358261        -0.361942        -2.360624
