19
Iteration:  1072charge 0 multiplicity 1
 C         0.128136         0.407893         0.173968
 C         1.640156         0.106632         0.124895
 C         2.210855        -0.476169         1.442117
 C         3.439563        -1.272236         0.926037
 C         4.090888        -0.373283        -0.232495
 O         4.064610         1.016418         0.118079
 C         2.708244         1.095723        -0.500431
 C         3.029978        -0.148476        -1.357486
 O         1.933924        -0.960085        -0.857802
 H        -0.144601         1.069805         0.995248
 H        -0.273754         0.918769        -0.819662
 H        -0.339246        -0.603343         0.434966
 H         2.427776         0.504577         1.963747
 H         1.489842        -1.115317         1.911866
 H         4.055765        -1.461481         1.911488
 H         3.292615        -2.290681         0.659437
 H         5.076347        -0.728873        -0.547434
 H         2.480962         2.184430        -0.843276
 H         3.010814        -0.232856        -2.419714
