19
Iteration:  2239
 C         0.235383         0.636711         0.256431
 C         1.615406         0.007031         0.123033
 C         2.209024        -0.607693         1.353942
 C         3.662160        -1.156634         0.964589
 C         4.120725        -0.368031        -0.194106
 O         3.915111         1.058549         0.213295
 C         2.652595         0.978072        -0.517335
 C         3.006585        -0.222042        -1.308603
 O         1.810808        -0.962033        -1.064177
 H         0.410064         1.358662         1.109520
 H        -0.059430         0.994345        -0.669008
 H        -0.600517        -0.050124         0.592539
 H         2.433689         0.080372         2.194984
 H         1.759268        -1.582622         1.706750
 H         4.371096        -1.129858         1.828459
 H         3.430851        -2.268120         0.726547
 H         5.143714        -0.572251        -0.529654
 H         2.158206         1.806604        -0.866921
 H         3.329518        -0.163889        -2.289713
