19
Iteration:   390charge 0 multiplicity 1
 C         0.191750         0.673822         0.161089
 C         1.631212         0.079162         0.124406
 C         2.177922        -0.658546         1.339047
 C         3.662589        -1.029085         1.152619
 C         4.158623        -0.463056        -0.237507
 O         3.936865         0.969267         0.175964
 C         2.655177         0.981639        -0.488713
 C         2.950694        -0.239275        -1.341429
 O         1.837776        -0.978979        -1.030203
 H         0.258524         1.619006         0.924384
 H         0.046672         1.017164        -0.784450
 H        -0.468104        -0.137281         0.284171
 H         2.056086        -0.114786         2.261237
 H         1.663378        -1.678803         1.392136
 H         4.312694        -0.494960         1.874571
 H         3.888564        -2.098014         1.389417
 H         5.194286        -0.798417        -0.575539
 H         2.344907         2.019295        -0.841197
 H         3.186785        -0.094366        -2.444042
