19
Iteration:   882
 C         0.145764         0.490652         0.215314
 C         1.590537         0.035338         0.154033
 C         2.255024        -0.596778         1.398110
 C         3.653154        -1.216546         1.042734
 C         4.100365        -0.367873        -0.070531
 O         3.990415         1.082565         0.088609
 C         2.734436         1.032215        -0.546454
 C         3.035693        -0.307556        -1.288661
 O         1.727999        -0.794387        -1.097547
 H         0.010193         0.907828         1.274353
 H        -0.070795         1.232905        -0.469336
 H        -0.495383        -0.346745         0.156590
 H         2.288917         0.163830         2.129363
 H         1.692364        -1.478444         1.769398
 H         4.454723        -1.244918         1.821492
 H         3.552845        -2.277070         0.778404
 H         5.113367        -0.660759        -0.436764
 H         2.364011         1.856826        -1.103852
 H         3.429307        -0.363720        -2.307395
