19
Iteration:  4822charge 0 multiplicity 1
 C         0.265310         0.565025         0.215140
 C         1.593924         0.070325         0.099984
 C         2.278849        -0.586738         1.401524
 C         3.620287        -1.265325         0.990635
 C         4.138068        -0.413300        -0.198325
 O         3.924150         1.126437         0.183910
 C         2.642362         0.984044        -0.510814
 C         3.042002        -0.261881        -1.253472
 O         1.728906        -0.904984        -1.056675
 H         0.201317         1.202395         1.169274
 H        -0.146619         1.047794        -0.678022
 H        -0.375652        -0.363626         0.198349
 H         2.509630         0.234461         2.145633
 H         1.680325        -1.366385         1.795915
 H         4.299557        -1.132958         1.873464
 H         3.431154        -2.301819         0.685407
 H         5.204900        -0.353678        -0.453650
 H         2.437834         1.833024        -1.092661
 H         3.350116        -0.220807        -2.287907
