19
Iteration:  1556
 C         0.157415         0.441771         0.114630
 C         1.607827         0.085281         0.192691
 C         2.198848        -0.609832         1.498150
 C         3.517075        -1.248580         1.016206
 C         4.188889        -0.335585        -0.100824
 O         4.081930         1.121419         0.009325
 C         2.738005         0.997852        -0.524652
 C         2.990604        -0.227318        -1.289202
 O         1.783716        -0.886538        -1.036883
 H         0.013582         1.181931         1.004655
 H        -0.024564         0.938135        -0.807562
 H        -0.550046        -0.416452         0.318091
 H         2.367903         0.152526         2.348263
 H         1.350816        -1.198897         1.912546
 H         4.232158        -1.442273         1.906166
 H         3.072274        -2.089168         0.573146
 H         5.187285        -0.676188        -0.247603
 H         2.349554         2.125633        -0.768433
 H         3.389467        -0.346296        -2.360700
