19
Iteration:  1256
 C         0.150901         0.426438         0.269385
 C         1.665460         0.084423         0.129616
 C         2.234078        -0.542057         1.458184
 C         3.488922        -1.276075         0.954870
 C         4.132603        -0.364173        -0.113439
 O         3.997231         1.146948         0.114754
 C         2.746335         1.009410        -0.604886
 C         3.061547        -0.280316        -1.306379
 O         1.767293        -0.862294        -1.014033
 H        -0.047959         1.122715         1.072609
 H        -0.057333         1.000687        -0.712966
 H        -0.411975        -0.495421         0.405717
 H         2.449896         0.344550         2.043596
 H         1.555075        -1.238924         1.985926
 H         4.250794        -1.481140         1.723178
 H         3.165279        -2.238248         0.490428
 H         5.193939        -0.560679        -0.364057
 H         2.510578         2.018093        -1.126323
 H         3.417900        -0.485304        -2.250003
