19
Iteration:  2536
 C         0.216096         0.507123         0.231319
 C         1.601090        -0.010871         0.079523
 C         2.276219        -0.656022         1.412907
 C         3.720221        -1.147037         0.984140
 C         4.165066        -0.406550        -0.183512
 O         3.890108         1.000503         0.293444
 C         2.677476         1.028989        -0.567676
 C         3.044558        -0.196691        -1.339522
 O         1.685347        -0.809170        -1.077143
 H         0.231094         1.405325         0.923770
 H        -0.131896         0.871460        -0.752902
 H        -0.498128        -0.230199         0.548479
 H         2.253816         0.189118         2.194059
 H         1.572454        -1.405419         1.892207
 H         4.532258        -1.011354         1.708998
 H         3.599634        -2.256033         0.840297
 H         5.166759        -0.555114        -0.654982
 H         2.445560         2.033691        -0.856195
 H         3.223783        -0.304201        -2.382494
