19
Iteration:  4856charge 0 multiplicity 1
 C         0.140477         0.523209         0.273872
 C         1.584915         0.130551         0.137371
 C         2.149838        -0.632963         1.402310
 C         3.451594        -1.221367         0.893071
 C         4.173137        -0.343203        -0.243653
 O         4.042655         1.098039         0.123885
 C         2.667581         1.046976        -0.488865
 C         3.115414        -0.215952        -1.304963
 O         1.912449        -0.993243        -0.950956
 H         0.046341         1.558350         0.760580
 H        -0.413495         0.642022        -0.699181
 H        -0.215854        -0.181504         1.069191
 H         2.088783        -0.003061         2.333559
 H         1.469178        -1.404455         1.625368
 H         4.236032        -1.325267         1.672126
 H         3.297267        -2.215481         0.539301
 H         5.237701        -0.572774        -0.446062
 H         2.358807         1.883768        -0.981708
 H         3.242449        -0.276296        -2.342680
