19
Iteration:   481charge 0 multiplicity 1
 C         0.125137         0.471814         0.120422
 C         1.588251         0.163239         0.077618
 C         2.264370        -0.430871         1.359115
 C         3.639322        -1.203561         0.951351
 C         4.149945        -0.389597        -0.218679
 O         3.953384         0.925417         0.272462
 C         2.765056         1.023356        -0.531828
 C         3.046099        -0.255841        -1.308378
 O         1.747880        -0.928750        -0.916634
 H        -0.243987         1.099664         0.936956
 H        -0.114313         0.727840        -0.908857
 H        -0.405739        -0.492542         0.354871
 H         2.415635         0.453786         2.072713
 H         1.537091        -1.060218         1.837977
 H         4.190503        -0.871403         1.824316
 H         3.681013        -2.368080         1.005314
 H         5.142664        -0.516789        -0.529950
 H         2.513532         1.955992        -1.010959
 H         3.142188        -0.194357        -2.339288
