19
Iteration:    49
 C         0.219842         0.539690         0.123566
 C         1.640606         0.041823         0.156622
 C         2.212144        -0.537880         1.397215
 C         3.552430        -1.217620         1.063353
 C         4.129897        -0.398028        -0.104535
 O         4.032608         1.118749         0.116432
 C         2.725146         0.971820        -0.532932
 C         3.007128        -0.312466        -1.332633
 O         1.727979        -0.870914        -1.000096
 H         0.030950         1.581296         0.461514
 H        -0.040028         0.446489        -1.000052
 H        -0.478345        -0.170672         0.681335
 H         2.386081         0.299624         2.075417
 H         1.504915        -1.222521         1.857152
 H         4.277943        -1.265569         1.996200
 H         3.416220        -2.252732         0.707145
 H         5.196826        -0.677429        -0.308561
 H         2.306855         1.905965        -0.854407
 H         3.399734        -0.427460        -2.396560
