19
Iteration:  3341
 C         0.173321         0.515702         0.148566
 C         1.653682         0.072192         0.218711
 C         2.187692        -0.669789         1.448370
 C         3.492311        -1.267215         0.998847
 C         4.183002        -0.317810        -0.209484
 O         4.049781         1.100512         0.039206
 C         2.738604         1.052269        -0.385087
 C         3.035278        -0.222875        -1.300871
 O         1.775688        -0.890207        -1.014821
 H        -0.163577         1.009541         1.003052
 H         0.003730         0.936965        -0.822627
 H        -0.579201        -0.314425         0.055389
 H         2.269835         0.060490         2.345810
 H         1.464519        -1.445198         1.697123
 H         4.170399        -1.526877         1.832969
 H         3.252881        -2.098894         0.302444
 H         5.215085        -0.565658        -0.486392
 H         2.370259         2.107084        -0.653964
 H         3.245005        -0.245642        -2.363376
