19
Iteration:  2856
 C         0.197614         0.506510         0.187064
 C         1.664733         0.113367         0.208723
 C         2.159533        -0.645734         1.369654
 C         3.521812        -1.228233         0.892094
 C         4.075985        -0.384168        -0.210499
 O         4.010469         1.102654         0.189109
 C         2.711848         1.025880        -0.529485
 C         3.025963        -0.224159        -1.333593
 O         1.859221        -0.900546        -0.892737
 H         0.156090         1.156336         1.055990
 H         0.034045         1.063720        -0.859736
 H        -0.521885        -0.365258         0.300002
 H         2.288410        -0.055451         2.275440
 H         1.559026        -1.468874         1.493649
 H         4.203960        -1.143763         1.642672
 H         3.420366        -2.226799         0.507724
 H         5.144931        -0.645675        -0.422503
 H         2.265870         1.947242        -0.987987
 H         3.264074        -0.225757        -2.419160
