19
Iteration:  1125charge 0 multiplicity 1
 C         0.196695         0.613794         0.258264
 C         1.647816         0.107604         0.064230
 C         2.231498        -0.606759         1.335053
 C         3.698227        -1.221765         1.021184
 C         4.156555        -0.428331        -0.166052
 O         3.849916         1.036400         0.218098
 C         2.671605         0.993633        -0.565991
 C         3.077718        -0.274336        -1.297517
 O         1.740811        -0.910945        -1.042069
 H         0.408030         1.445210         0.928268
 H        -0.399235         0.823298        -0.652096
 H        -0.433402        -0.170988         0.616526
 H         2.199666         0.253982         2.027589
 H         1.553015        -1.372528         1.682733
 H         4.250210        -0.774087         1.910966
 H         3.877680        -2.290181         1.108225
 H         5.218576        -0.516415        -0.533235
 H         2.402976         2.023000        -1.045154
 H         3.321029        -0.411633        -2.324549
