19
Iteration:  4529
 C         0.146146         0.504285         0.231379
 C         1.555179        -0.008333         0.137954
 C         2.230040        -0.526292         1.407858
 C         3.632751        -1.261196         1.085767
 C         4.171381        -0.430639        -0.206883
 O         4.017055         1.051197         0.172282
 C         2.679914         0.928249        -0.469511
 C         3.070842        -0.192443        -1.405345
 O         1.713068        -0.818995        -1.121128
 H         0.226048         1.376881         0.919206
 H        -0.126670         0.910134        -0.717208
 H        -0.500664        -0.211876         0.666621
 H         2.451203         0.499128         1.862447
 H         1.520391        -1.075261         1.945851
 H         4.313392        -1.031927         1.988731
 H         3.496900        -2.334197         1.079627
 H         5.246282        -0.653346        -0.335646
 H         2.386009         1.904595        -0.874848
 H         3.483004        -0.040690        -2.406828
