19
Iteration:  3157
 C         0.097914         0.480460         0.354918
 C         1.612712         0.203022         0.088252
 C         2.169580        -0.605480         1.340231
 C         3.505173        -1.251595         0.870873
 C         4.195963        -0.447666        -0.149509
 O         3.974610         1.108535         0.197039
 C         2.722703         1.023768        -0.576975
 C         3.099276        -0.251420        -1.344488
 O         1.852732        -0.885010        -0.961321
 H         0.157131         1.018498         1.360949
 H        -0.308803         1.079606        -0.438953
 H        -0.522432        -0.433945         0.287672
 H         2.392243         0.126370         2.103272
 H         1.496817        -1.416461         1.621645
 H         4.163309        -1.203768         1.762641
 H         3.465740        -2.248106         0.523861
 H         5.279876        -0.612568        -0.247443
 H         2.511897         1.926269        -1.035669
 H         3.305151        -0.392690        -2.381268
