19
Iteration:  4969charge 0 multiplicity 1
 C         0.125405         0.552593         0.183819
 C         1.582860         0.080301         0.139718
 C         2.226202        -0.612405         1.373433
 C         3.648047        -1.296711         0.918367
 C         4.180595        -0.331584        -0.111070
 O         3.980004         1.100349         0.082163
 C         2.680836         1.031166        -0.495861
 C         3.043647        -0.271792        -1.252072
 O         1.754662        -0.882417        -0.957787
 H        -0.087017         0.827961         1.246001
 H        -0.011415         1.545702        -0.375337
 H        -0.493763        -0.326073        -0.183784
 H         2.550052         0.025661         2.152218
 H         1.684538        -1.457821         1.928689
 H         4.268977        -1.318464         1.768985
 H         3.512426        -2.246555         0.418242
 H         5.215910        -0.598496        -0.388293
 H         2.370464         1.972392        -0.990716
 H         3.397680        -0.498035        -2.313777
