19
Iteration:   719charge 0 multiplicity 1
 C         0.194589         0.608442         0.221538
 C         1.658756         0.062529         0.110756
 C         2.152491        -0.755083         1.367654
 C         3.641616        -1.270327         1.004015
 C         4.142207        -0.305952        -0.070381
 O         3.957162         1.131602         0.039861
 C         2.727909         1.044635        -0.636851
 C         3.075567        -0.274866        -1.239014
 O         1.718177        -0.886912        -0.918310
 H         0.093248         1.565336         0.961774
 H        -0.074051         1.007629        -0.709059
 H        -0.566333        -0.092408         0.477078
 H         2.154967        -0.160583         2.259550
 H         1.475724        -1.678807         1.490146
 H         4.202806        -1.355607         2.028663
 H         3.724731        -2.242669         0.570374
 H         5.160004        -0.613679        -0.412108
 H         2.513128         2.000493        -1.117513
 H         3.407677        -0.425435        -2.258337
