19
Iteration:   102charge 0 multiplicity 1
 C         0.291006         0.682308         0.282361
 C         1.553002         0.063449         0.029707
 C         2.137965        -0.510610         1.321620
 C         3.604049        -1.115904         1.020516
 C         4.194390        -0.412913        -0.181320
 O         3.850158         1.059204         0.219888
 C         2.725036         0.938016        -0.575029
 C         3.069601        -0.348063        -1.325594
 O         1.824530        -1.033818        -0.994182
 H         0.280788         1.137725         1.178958
 H        -0.160590         1.429806        -0.475014
 H        -0.439140        -0.192371         0.333816
 H         2.159521         0.220508         2.116406
 H         1.451824        -1.283071         1.548342
 H         4.177173        -0.772603         1.964755
 H         3.695014        -2.144886         1.097597
 H         5.306172        -0.560155        -0.409960
 H         2.486511         1.795069        -1.086907
 H         3.360495        -0.371812        -2.420799
