19
Iteration:  1063
 C         0.152150         0.423355         0.171923
 C         1.617131         0.082284         0.128558
 C         2.287684        -0.471197         1.414003
 C         3.502788        -1.212379         0.943437
 C         4.098346        -0.430450        -0.219408
 O         3.969839         0.998210         0.194680
 C         2.767330         1.115564        -0.546626
 C         2.981922        -0.190527        -1.359285
 O         1.877254        -0.949395        -0.912563
 H        -0.125336         0.989901         1.013296
 H        -0.197472         1.055375        -0.729353
 H        -0.515660        -0.511767         0.291104
 H         2.474134         0.390454         2.166916
 H         1.609804        -1.121242         1.983430
 H         4.329679        -1.179346         1.748274
 H         3.107425        -2.163252         0.666760
 H         5.094965        -0.674218        -0.476388
 H         2.461183         2.137009        -0.836515
 H         3.340692        -0.279309        -2.403183
