19
Iteration:  3451charge 0 multiplicity 1
 C         0.160677         0.581736         0.243409
 C         1.623351         0.037123         0.152084
 C         2.183187        -0.632182         1.329405
 C         3.594474        -1.208830         0.905415
 C         4.125693        -0.411286        -0.202601
 O         3.938854         1.062250         0.192596
 C         2.730831         1.023596        -0.492788
 C         3.084110        -0.191873        -1.327348
 O         1.813025        -0.895900        -0.947046
 H        -0.020455         1.444757         0.968608
 H        -0.029998         0.799443        -0.825455
 H        -0.498479        -0.306089         0.547529
 H         2.186398         0.070165         2.233274
 H         1.413928        -1.410478         1.617276
 H         4.420216        -1.172301         1.683723
 H         3.599131        -2.333096         0.655791
 H         5.236822        -0.593075        -0.493141
 H         2.317221         2.083644        -0.866739
 H         3.334284        -0.394581        -2.409478
