19
Iteration:    93charge 0 multiplicity 1
 C         0.220760         0.676912         0.328249
 C         1.641637         0.103372         0.036791
 C         2.089804        -0.575037         1.263656
 C         3.502420        -1.109701         1.015230
 C         4.211994        -0.360726        -0.146656
 O         3.901207         1.079233         0.180690
 C         2.706698         1.003681        -0.648534
 C         3.089605        -0.367344        -1.307082
 O         1.862271        -1.077732        -0.941114
 H         0.377952         1.218464         1.304075
 H        -0.167671         1.377797        -0.470672
 H        -0.505791        -0.146751         0.556583
 H         2.216791         0.080054         2.105244
 H         1.497732        -1.411143         1.596767
 H         4.130733        -1.001866         1.993045
 H         3.498580        -2.154643         0.670471
 H         5.301471        -0.583812        -0.288017
 H         2.485363         1.936957        -1.088478
 H         3.409375        -0.569931        -2.387256
