19
Iteration:  2690
 C         0.149716         0.536140         0.394490
 C         1.611614         0.145491         0.136933
 C         2.133219        -0.602630         1.350799
 C         3.576951        -1.281714         0.911345
 C         4.184567        -0.351256        -0.099903
 O         3.966748         1.105321         0.160605
 C         2.710926         0.996597        -0.598155
 C         3.103215        -0.302628        -1.324983
 O         1.849972        -0.891637        -1.029011
 H        -0.079510         1.187193         1.299639
 H        -0.340114         1.011797        -0.623793
 H        -0.394166        -0.358392         0.687604
 H         2.279277         0.047741         2.170729
 H         1.365203        -1.364102         1.303011
 H         4.112147        -1.331996         1.800843
 H         3.448714        -2.175759         0.329847
 H         5.271748        -0.446524        -0.323911
 H         2.403568         1.838115        -1.241130
 H         3.245651        -0.276497        -2.424316
