19
Iteration:  2643
 C         0.181722         0.586283         0.175560
 C         1.638591         0.059963         0.194019
 C         2.224154        -0.644460         1.413129
 C         3.588231        -1.133736         1.009828
 C         4.164603        -0.393754        -0.269002
 O         3.972812         1.004298         0.187207
 C         2.640778         0.970872        -0.415335
 C         3.054159        -0.149927        -1.381860
 O         1.775546        -0.951039        -1.054596
 H        -0.099141         1.059910         1.204769
 H        -0.080378         1.302781        -0.592726
 H        -0.470415        -0.347211         0.183100
 H         2.414707         0.087023         2.081296
 H         1.553213        -1.462970         1.759232
 H         4.349585        -0.837498         1.796514
 H         3.544823        -2.169963         0.837537
 H         5.219758        -0.672724        -0.696051
 H         2.407227         1.985165        -0.660869
 H         3.295752        -0.116336        -2.423870
