19
Iteration:   909
 C         0.161951         0.418807         0.306254
 C         1.623367         0.134512         0.147987
 C         2.182472        -0.436302         1.341446
 C         3.397402        -1.288789         0.853435
 C         4.134497        -0.322766        -0.168993
 O         4.014494         1.078321         0.176060
 C         2.723084         1.068902        -0.544658
 C         3.085983        -0.260518        -1.349554
 O         1.921505        -0.969282        -0.918070
 H         0.078451         1.090047         1.104835
 H        -0.396053         0.859164        -0.595012
 H        -0.303116        -0.531548         0.678076
 H         2.392631         0.314777         2.178660
 H         1.497277        -1.205641         1.661849
 H         4.093714        -1.563060         1.660667
 H         3.137239        -2.259080         0.531011
 H         5.106101        -0.642434        -0.476328
 H         2.376638         1.943178        -1.152632
 H         3.360172        -0.284354        -2.419095
