19
Iteration:  1687
 C         0.154405         0.478060         0.141806
 C         1.613537         0.066832         0.124665
 C         2.310819        -0.500097         1.398256
 C         3.678424        -1.219815         1.042725
 C         4.121863        -0.415798        -0.190744
 O         3.969330         0.987851         0.240053
 C         2.654333         1.028587        -0.523685
 C         3.033721        -0.259485        -1.323346
 O         1.737130        -0.825104        -1.061756
 H        -0.066843         1.492013         0.569381
 H        -0.127039         0.414317        -0.882972
 H        -0.545015        -0.242100         0.599943
 H         2.634297         0.290186         2.146117
 H         1.509301        -1.146776         1.855983
 H         4.220851        -1.293321         1.995454
 H         3.539532        -2.242326         0.892465
 H         5.130264        -0.568652        -0.421799
 H         2.392488         2.032473        -0.894050
 H         3.220296        -0.251919        -2.421614
