19
Iteration:  4080charge 0 multiplicity 1
 C         0.193314         0.537275         0.149075
 C         1.588918         0.045541         0.156918
 C         2.247585        -0.629879         1.404102
 C         3.545918        -1.285435         0.884580
 C         4.089425        -0.362397        -0.125702
 O         4.038326         1.121981         0.143086
 C         2.726130         1.071694        -0.554900
 C         2.987771        -0.208244        -1.264845
 O         1.805616        -0.899631        -0.924297
 H         0.110306         1.117552         1.060012
 H        -0.136599         1.017361        -0.775587
 H        -0.532169        -0.344110         0.222334
 H         2.552599         0.101920         2.193985
 H         1.546300        -1.307113         1.823045
 H         4.166062        -1.558502         1.766004
 H         3.495007        -2.195614         0.347963
 H         5.071893        -0.771882        -0.371076
 H         2.314334         1.968883        -0.998159
 H         3.378802        -0.374777        -2.228666
