19
Iteration:  1259
 C         0.163985         0.437737         0.277648
 C         1.667875         0.098849         0.142015
 C         2.202279        -0.545533         1.426141
 C         3.487566        -1.284043         0.938888
 C         4.157701        -0.361238        -0.111342
 O         3.981630         1.139359         0.103568
 C         2.738644         1.045243        -0.613412
 C         3.071158        -0.298712        -1.279528
 O         1.772026        -0.863869        -0.982483
 H        -0.068521         1.128951         1.050512
 H        -0.160905         0.968029        -0.665962
 H        -0.494574        -0.454584         0.349124
 H         2.429053         0.271611         2.046359
 H         1.639770        -1.318949         1.857818
 H         4.256471        -1.562527         1.722762
 H         3.285738        -2.240089         0.554652
 H         5.175446        -0.573701        -0.411925
 H         2.495499         2.007027        -1.205712
 H         3.529182        -0.506937        -2.270047
