19
Iteration:   455charge 0 multiplicity 1
 C         0.184072         0.435684         0.184264
 C         1.614217         0.049969         0.107644
 C         2.239547        -0.497538         1.526792
 C         3.371924        -1.253889         0.943973
 C         4.092917        -0.363053        -0.137492
 O         4.013577         1.136810         0.090822
 C         2.713753         1.033824        -0.554385
 C         3.126529        -0.278493        -1.319245
 O         1.897682        -0.913295        -0.995661
 H         0.124971         1.183508         1.107371
 H        -0.207695         0.801426        -0.752920
 H        -0.430586        -0.314394         0.621609
 H         2.565650         0.372861         2.046937
 H         1.471639        -1.005454         2.216656
 H         4.009285        -1.642870         1.754512
 H         2.991179        -2.089161         0.454748
 H         5.197023        -0.642800        -0.230328
 H         2.248010         1.945374        -1.007386
 H         3.358704        -0.472169        -2.428255
