19
Iteration:   554
 C         0.205856         0.701555         0.343491
 C         1.598567         0.124990         0.076569
 C         2.136598        -0.716854         1.308410
 C         3.585811        -1.128061         1.033488
 C         4.130421        -0.303499        -0.105434
 O         3.919246         1.073973         0.140480
 C         2.660046         1.003327        -0.708619
 C         3.112293        -0.332256        -1.296625
 O         1.867889        -1.040510        -0.965541
 H         0.451836         1.407879         1.285151
 H        -0.166264         1.204093        -0.484471
 H        -0.528916         0.067370         0.792955
 H         1.829459        -0.265634         2.229242
 H         1.522374        -1.669629         1.221523
 H         4.247633        -0.957588         1.916118
 H         3.657765        -2.126470         0.788936
 H         5.213759        -0.534248        -0.375359
 H         2.446815         1.872773        -1.365181
 H         3.591646        -0.499139        -2.297459
