19
Iteration:    83
 C         0.192785         0.645067         0.337760
 C         1.599998         0.103727         0.061598
 C         2.149585        -0.625290         1.316184
 C         3.503409        -1.179515         0.993018
 C         4.079767        -0.295656        -0.039019
 O         3.979744         1.104274         0.085512
 C         2.725151         0.983026        -0.706669
 C         3.136590        -0.352699        -1.279947
 O         1.903889        -1.013527        -0.927481
 H         0.313906         1.444571         1.206609
 H        -0.220234         1.245414        -0.512380
 H        -0.597088        -0.077950         0.636737
 H         2.022929         0.095609         2.119618
 H         1.334081        -1.363274         1.445105
 H         4.201684        -1.411189         1.889746
 H         3.271857        -2.186744         0.532822
 H         5.125994        -0.527722        -0.284486
 H         2.287859         1.898158        -1.125270
 H         3.497509        -0.686180        -2.305751
