19
Iteration:   847
 C         0.222328         0.653179         0.219364
 C         1.616957         0.004010         0.115012
 C         2.156410        -0.691378         1.318770
 C         3.689019        -1.024370         1.053655
 C         4.137920        -0.412660        -0.235333
 O         3.929820         0.971633         0.150819
 C         2.685060         0.948796        -0.496376
 C         2.955594        -0.217846        -1.370702
 O         1.834533        -0.908391        -0.958790
 H         0.149341         0.869631         1.331274
 H         0.088546         1.587615        -0.332801
 H        -0.622735        -0.013048        -0.051941
 H         1.995050        -0.256276         2.276347
 H         1.598843        -1.642787         1.372361
 H         4.093711        -0.460067         1.841962
 H         3.859474        -2.158224         1.095373
 H         5.240085        -0.491974        -0.380180
 H         2.553317         1.961097        -0.706826
 H         3.270592        -0.303122        -2.446646
