19
Iteration:  3875
 C         0.195550         0.602625         0.271435
 C         1.621451         0.138488         0.128124
 C         2.194590        -0.616906         1.239758
 C         3.644093        -1.248626         0.972354
 C         4.148847        -0.345227        -0.120628
 O         3.934227         1.021791         0.211371
 C         2.737000         0.979617        -0.513427
 C         2.977989        -0.244192        -1.326935
 O         1.800950        -0.933886        -1.030276
 H         0.050696         0.953789         1.287890
 H        -0.037216         1.340600        -0.435171
 H        -0.597607        -0.188000         0.113230
 H         2.466758         0.192524         2.046779
 H         1.497442        -1.300804         1.667726
 H         4.289839        -1.176948         1.898549
 H         3.576015        -2.282270         0.618718
 H         5.114602        -0.646539        -0.301606
 H         2.392988         1.946664        -0.913903
 H         3.265753        -0.209720        -2.361344
