19
Iteration:  3131
 C         0.189937         0.546996         0.208355
 C         1.607568         0.068253         0.137521
 C         2.194679        -0.700594         1.394952
 C         3.562079        -1.185074         0.964130
 C         4.141893        -0.362752        -0.172346
 O         4.064363         1.031270         0.128147
 C         2.685396         1.091499        -0.511672
 C         2.968533        -0.169763        -1.286074
 O         1.802585        -0.925477        -0.988574
 H         0.087125         1.177555         1.090465
 H        -0.033436         1.034491        -0.838786
 H        -0.498067        -0.402976         0.295699
 H         2.194428         0.051790         2.278428
 H         1.593234        -1.559042         1.747686
 H         4.224560        -1.256284         1.822851
 H         3.529377        -2.249554         0.587018
 H         5.167006        -0.608143        -0.470478
 H         2.480962         2.186191        -0.882012
 H         3.201425        -0.300191        -2.354063
