19
Iteration:  4264charge 0 multiplicity 1
 C         0.081935         0.540554         0.307630
 C         1.551968         0.133909         0.170111
 C         2.154485        -0.599866         1.384107
 C         3.500272        -1.177889         0.892984
 C         4.157497        -0.372671        -0.192498
 O         3.995747         1.021909         0.151348
 C         2.811779         1.005677        -0.562372
 C         3.102568        -0.277161        -1.345046
 O         1.870292        -0.873237        -0.990140
 H        -0.041144         1.184254         1.145957
 H        -0.430408         0.900861        -0.578865
 H        -0.477946        -0.427310         0.387055
 H         2.288316         0.076306         2.236127
 H         1.469665        -1.412813         1.723639
 H         4.186397        -1.100658         1.785114
 H         3.487812        -2.251007         0.719912
 H         5.228345        -0.610407        -0.377393
 H         2.511962         1.973403        -0.906930
 H         3.613890        -0.510300        -2.248524
