19
Iteration:   548
 C         0.248159         0.703662         0.386301
 C         1.580228         0.035613         0.068687
 C         2.067199        -0.713250         1.272613
 C         3.524990        -1.098099         1.056038
 C         4.106100        -0.301831        -0.148272
 O         3.945799         1.130649         0.090254
 C         2.722869         0.989533        -0.659063
 C         3.115047        -0.338450        -1.296142
 O         1.898674        -1.037835        -0.934769
 H         0.355592         1.284326         1.251663
 H        -0.126448         1.272994        -0.544916
 H        -0.634169         0.081697         0.782731
 H         1.847861        -0.418304         2.359679
 H         1.539265        -1.629368         1.137259
 H         4.329567        -0.855209         1.748178
 H         3.557537        -2.226801         0.712479
 H         5.137675        -0.472205        -0.332825
 H         2.554549         1.922881        -1.193045
 H         3.569074        -0.544477        -2.245123
