19
Iteration:  4152
 C         0.227445         0.561880         0.278190
 C         1.628053         0.047990         0.111555
 C         2.207370        -0.620140         1.390700
 C         3.615136        -1.105848         1.067365
 C         4.189685        -0.379371        -0.106342
 O         3.966409         0.990196         0.167882
 C         2.647296         0.922512        -0.513932
 C         3.013704        -0.266377        -1.341544
 O         1.720806        -0.816273        -1.195461
 H         0.311202         1.442360         0.901750
 H        -0.276626         0.684517        -0.685452
 H        -0.425012        -0.086482         0.801921
 H         2.357863         0.155491         2.115423
 H         1.708262        -1.523904         1.866712
 H         4.374557        -1.170102         1.795750
 H         3.551364        -2.218214         0.771399
 H         5.243167        -0.582774        -0.357530
 H         2.328025         1.931124        -0.767065
 H         3.498516        -0.115337        -2.313681
