19
Iteration:  2332
 C         0.219315         0.545411         0.377775
 C         1.626227         0.072625         0.057272
 C         2.230831        -0.494537         1.331817
 C         3.602216        -1.186611         0.999706
 C         4.129410        -0.404105        -0.208733
 O         3.904473         0.982814         0.212060
 C         2.678239         0.993689        -0.524452
 C         3.076951        -0.161808        -1.319153
 O         1.811315        -0.970532        -1.084306
 H         0.164066         0.984778         1.371794
 H        -0.401895         1.007862        -0.518822
 H        -0.366648        -0.385253         0.490534
 H         2.101973         0.223196         2.118617
 H         1.499643        -1.235168         1.418856
 H         4.276689        -1.187486         1.831065
 H         3.604432        -2.167668         0.734319
 H         5.125618        -0.620137        -0.637048
 H         2.360021         2.097842        -0.674237
 H         3.442786        -0.066606        -2.424792
