19
Iteration:   951
 C         0.163484         0.534698         0.183010
 C         1.609906         0.015830         0.132949
 C         2.280175        -0.620912         1.411394
 C         3.675038        -1.199949         1.015638
 C         4.175853        -0.390047        -0.135239
 O         3.955267         1.083878         0.157164
 C         2.679092         0.936114        -0.477322
 C         2.989579        -0.282113        -1.273297
 O         1.679807        -0.793550        -1.117163
 H         0.083140         1.580619         0.481047
 H         0.016738         0.603110        -0.926119
 H        -0.471079        -0.100028         0.796689
 H         2.660158         0.241372         2.060366
 H         1.594735        -1.351389         1.868142
 H         4.505859        -1.222203         1.861440
 H         3.637145        -2.251774         0.809245
 H         5.259952        -0.573737        -0.336091
 H         2.280410         1.939462        -0.932647
 H         3.402400        -0.206231        -2.281689
