19
Iteration:  3816charge 0 multiplicity 1
 C         0.143313         0.487663         0.264995
 C         1.629539         0.183906         0.106616
 C         2.136358        -0.611105         1.322875
 C         3.491498        -1.262087         0.940133
 C         4.166339        -0.333246        -0.219315
 O         4.078240         1.041754         0.139356
 C         2.679065         1.098825        -0.461013
 C         3.044051        -0.221980        -1.313816
 O         1.844715        -0.957201        -0.942490
 H         0.098310         1.326898         0.980056
 H        -0.219907         0.976027        -0.695478
 H        -0.391677        -0.389746         0.533215
 H         2.036445         0.062323         2.271299
 H         1.435003        -1.516042         1.544673
 H         4.414289        -1.434950         1.731610
 H         3.295895        -2.378411         0.570816
 H         5.264833        -0.788837        -0.404827
 H         2.432221         2.141901        -0.649787
 H         3.406223        -0.224622        -2.389441
