19
Iteration:  2115
 C         0.118305         0.513408         0.237128
 C         1.597896         0.116551         0.152467
 C         2.249454        -0.609186         1.420468
 C         3.500539        -1.224754         0.875517
 C         4.145816        -0.358160        -0.200493
 O         4.011881         1.072228         0.140312
 C         2.614878         1.084764        -0.612646
 C         3.098531        -0.204018        -1.274244
 O         1.882103        -0.976798        -0.892699
 H         0.052492         0.950985         1.201757
 H        -0.308853         1.255132        -0.567983
 H        -0.500997        -0.380022         0.318877
 H         2.272899         0.090335         2.243892
 H         1.515896        -1.425031         1.682066
 H         4.290658        -1.421282         1.667819
 H         3.388250        -2.302777         0.501333
 H         5.220523        -0.607298        -0.510608
 H         2.480343         2.134370        -0.978386
 H         3.400195        -0.414058        -2.368365
