19
Iteration:  1668
 C         0.123053         0.527483         0.137604
 C         1.591209         0.125501         0.143399
 C         2.194592        -0.572590         1.343878
 C         3.567609        -1.212535         0.924884
 C         4.139495        -0.409098        -0.222102
 O         3.953831         1.057030         0.197185
 C         2.740572         1.001032        -0.528181
 C         3.039911        -0.193683        -1.264791
 O         1.862161        -0.946856        -0.896891
 H         0.016951         1.424700         0.741739
 H        -0.295961         0.622728        -0.933823
 H        -0.389866        -0.200958         0.709939
 H         2.327804         0.160259         2.078915
 H         1.559034        -1.366212         1.783867
 H         4.421085        -1.068773         1.625861
 H         3.480568        -2.312489         0.728979
 H         5.178691        -0.685280        -0.497116
 H         2.589568         2.138777        -0.857241
 H         3.315209        -0.440892        -2.270213
