19
Iteration:  2494charge 0 multiplicity 1
 C         0.215542         0.550091         0.199508
 C         1.585199        -0.020073         0.161671
 C         2.119394        -0.690990         1.372738
 C         3.556093        -1.155789         0.881592
 C         4.135938        -0.324921        -0.254485
 O         4.026888         1.109898         0.111834
 C         2.714693         1.028845        -0.438195
 C         3.013936        -0.183149        -1.287821
 O         1.840375        -0.932319        -0.891834
 H         0.168535         1.010469         1.164879
 H        -0.032298         1.189194        -0.669880
 H        -0.535309        -0.157774         0.206605
 H         2.006983        -0.227393         2.441972
 H         1.624273        -1.657392         1.598578
 H         4.304885        -1.214328         1.704833
 H         3.645206        -2.268911         0.436428
 H         5.178973        -0.474307        -0.393170
 H         2.351044         1.957559        -0.951462
 H         3.340044        -0.215252        -2.348698
