19
Iteration:  4787charge 0 multiplicity 1
 C         0.136774         0.526880         0.260777
 C         1.541904         0.042879         0.044188
 C         2.212538        -0.573169         1.392555
 C         3.637529        -1.156592         1.018948
 C         4.146638        -0.425256        -0.222339
 O         3.989206         1.034783         0.146656
 C         2.722095         1.046456        -0.549513
 C         3.017005        -0.241835        -1.317977
 O         1.797771        -0.887365        -0.998949
 H        -0.056756         0.605379         1.338986
 H        -0.082399         1.458673        -0.224252
 H        -0.597977        -0.326127         0.101805
 H         2.396418         0.066014         2.240236
 H         1.651822        -1.438933         1.851815
 H         4.307555        -0.989112         1.929274
 H         3.576058        -2.307032         1.127029
 H         5.219448        -0.680065        -0.498703
 H         2.624285         2.081460        -1.035626
 H         3.410216        -0.232539        -2.393228
