19
Iteration:  1184
 C         0.202552         0.573042         0.211862
 C         1.641942         0.054621         0.203053
 C         2.152697        -0.696880         1.332544
 C         3.584591        -1.229631         1.035816
 C         4.155673        -0.344704        -0.096395
 O         3.994986         1.175395         0.010161
 C         2.688753         1.023301        -0.569363
 C         3.061622        -0.330126        -1.222094
 O         1.757400        -0.859199        -0.967984
 H        -0.038213         1.343979         0.944547
 H         0.097855         1.067882        -0.732924
 H        -0.555132        -0.201858         0.496665
 H         2.240483        -0.224998         2.348239
 H         1.606618        -1.675584         1.376950
 H         4.342392        -1.360998         1.868664
 H         3.577147        -2.164818         0.439518
 H         5.140303        -0.631082        -0.390737
 H         2.275228         1.823595        -1.140700
 H         3.437043        -0.394853        -2.300640
