19
Iteration:  2322charge 0 multiplicity 1
 C         0.167986         0.420574         0.384229
 C         1.599309         0.074902         0.065691
 C         2.171180        -0.527681         1.302394
 C         3.557937        -1.219713         0.972079
 C         4.128186        -0.416340        -0.207489
 O         3.975196         1.027119         0.150196
 C         2.710479         1.080389        -0.515512
 C         3.134211        -0.196978        -1.301323
 O         1.818937        -0.895880        -1.013054
 H         0.165746         1.081963         1.231126
 H        -0.243557         1.157418        -0.436588
 H        -0.472361        -0.455766         0.606691
 H         2.274408         0.123054         2.134731
 H         1.525505        -1.342794         1.656542
 H         4.275567        -1.223343         1.767457
 H         3.232510        -2.157994         0.731950
 H         5.218655        -0.445203        -0.410368
 H         2.360897         2.020960        -1.103185
 H         3.344642        -0.213606        -2.448339
