19
Iteration:  1921
 C         0.183693         0.582347         0.202424
 C         1.617586         0.041112         0.154874
 C         2.166715        -0.784597         1.349093
 C         3.651377        -1.192975         1.042597
 C         4.212332        -0.305355        -0.042515
 O         4.077842         1.148752         0.020069
 C         2.687126         0.986077        -0.521399
 C         2.945802        -0.253658        -1.275777
 O         1.721220        -0.845172        -1.006100
 H        -0.092841         1.165226         1.090772
 H        -0.128998         1.162182        -0.717693
 H        -0.450216        -0.334682         0.168872
 H         2.154122        -0.055237         2.173209
 H         1.521605        -1.691097         1.646660
 H         4.166451        -1.407700         1.976240
 H         3.606962        -2.226547         0.622824
 H         5.113365        -0.839967        -0.486215
 H         2.425833         2.008679        -0.989695
 H         3.342998        -0.277294        -2.292962
