19
Iteration:  3577
 C         0.234498         0.625080         0.235665
 C         1.590368         0.008431         0.124298
 C         2.210832        -0.623755         1.385541
 C         3.642221        -1.221722         0.968540
 C         4.121924        -0.452819        -0.284135
 O         3.879004         0.992666         0.220191
 C         2.696753         0.995990        -0.418212
 C         3.032916        -0.159004        -1.345883
 O         1.820226        -0.882349        -1.069552
 H         0.290154         1.480567         1.003221
 H        -0.133223         1.011577        -0.813603
 H        -0.507999        -0.110808         0.621512
 H         2.234946         0.186593         2.132144
 H         1.567755        -1.443429         1.690209
 H         4.276153        -0.758780         1.707771
 H         3.817231        -2.266600         0.925097
 H         5.250480        -0.558686        -0.407804
 H         2.316909         1.947136        -0.569714
 H         3.358386        -0.098960        -2.364861
