19
Iteration:  3733charge 0 multiplicity 1
 C         0.197070         0.697727         0.199824
 C         1.614406         0.093151         0.137235
 C         2.160502        -0.721652         1.383566
 C         3.576618        -1.252011         0.906724
 C         4.154205        -0.366495        -0.221327
 O         3.977535         1.062148         0.195882
 C         2.691101         1.020981        -0.490341
 C         2.996159        -0.201274        -1.321532
 O         1.893424        -0.946967        -0.952445
 H         0.065639         1.305430         1.112789
 H        -0.275351         1.086960        -0.724108
 H        -0.501218        -0.187986         0.501731
 H         1.975226        -0.070310         2.267770
 H         1.529160        -1.546383         1.625414
 H         4.284760        -1.352713         1.733358
 H         3.485834        -2.252963         0.520863
 H         5.128745        -0.575844        -0.625497
 H         2.348626         2.063307        -0.741404
 H         3.365180        -0.328561        -2.365986
