19
Iteration:   376charge 0 multiplicity 1
 C         0.275119         0.603093         0.090180
 C         1.603514        -0.027483         0.157048
 C         2.163430        -0.718100         1.414470
 C         3.675491        -1.090376         1.136444
 C         4.050205        -0.406801        -0.150149
 O         4.025555         1.067592         0.044715
 C         2.698763         0.993765        -0.475488
 C         3.030519        -0.232961        -1.309658
 O         1.729408        -0.895198        -1.025415
 H         0.144493         1.401182         0.837495
 H        -0.074614         1.134160        -0.865166
 H        -0.626408         0.040886         0.418475
 H         2.006867        -0.087889         2.285812
 H         1.527985        -1.624221         1.575900
 H         4.311056        -0.659910         1.925344
 H         3.822810        -2.113598         1.037776
 H         5.126891        -0.612341        -0.478957
 H         2.276216         1.986478        -0.717643
 H         3.457753        -0.453016        -2.358150
