19
Iteration:  3669
 C         0.192775         0.539053         0.340238
 C         1.623313         0.040122         0.053245
 C         2.183781        -0.481553         1.261561
 C         3.573363        -1.231730         0.954446
 C         4.104057        -0.411122        -0.219519
 O         3.992984         0.904784         0.280269
 C         2.666904         1.008905        -0.490555
 C         3.051384        -0.176086        -1.335215
 O         1.844880        -0.841403        -1.057614
 H         0.161656         0.842953         1.413963
 H        -0.237028         1.123611        -0.482640
 H        -0.354784        -0.509003         0.281246
 H         2.535321         0.274102         1.949771
 H         1.544999        -1.219429         1.784189
 H         4.198322        -0.769637         1.715260
 H         3.407524        -2.319361         1.042500
 H         5.079112        -0.609192        -0.566083
 H         2.293066         2.083405        -0.709637
 H         3.238031        -0.138767        -2.436893
