19
Iteration:  1171charge 0 multiplicity 1
 C         0.286061         0.677432         0.287619
 C         1.600776         0.027607         0.127451
 C         2.154812        -0.830153         1.361979
 C         3.585571        -1.215899         1.026431
 C         4.125572        -0.357170        -0.078764
 O         3.960905         1.232472        -0.022003
 C         2.667685         0.950763        -0.572020
 C         3.082071        -0.256755        -1.237914
 O         1.805607        -0.916865        -0.995888
 H         0.382353         1.356987         1.044632
 H        -0.096388         1.123242        -0.654041
 H        -0.508883        -0.026604         0.386430
 H         2.070538        -0.123904         2.134069
 H         1.410926        -1.552844         1.496441
 H         4.147358        -1.225054         2.013868
 H         3.582028        -2.224630         0.787292
 H         5.146178        -0.551228        -0.320254
 H         2.122342         1.845274        -1.039310
 H         3.467651        -0.389547        -2.216718
