19
Iteration:   619
 C         0.082904         0.371670         0.138384
 C         1.615908         0.162263         0.165853
 C         2.167835        -0.449508         1.365597
 C         3.454896        -1.269546         0.951038
 C         4.118412        -0.438736        -0.280030
 O         4.060377         1.030268         0.069556
 C         2.742800         1.100482        -0.499205
 C         3.105616        -0.172390        -1.295319
 O         1.907084        -0.937104        -0.791375
 H        -0.263312         1.238423         0.773858
 H        -0.121051         0.570795        -0.858877
 H        -0.581783        -0.354064         0.508358
 H         2.432148         0.189276         2.173955
 H         1.460927        -1.189940         1.852653
 H         4.196989        -1.242877         1.800671
 H         3.085326        -2.183575         0.602917
 H         5.215283        -0.735603        -0.402674
 H         2.444226         2.141187        -0.718248
 H         3.217786        -0.346072        -2.409216
