19
Iteration:  4079charge 0 multiplicity 1
 C         0.191536         0.534667         0.154372
 C         1.580522         0.037636         0.152570
 C         2.255128        -0.615132         1.401519
 C         3.547827        -1.287342         0.892647
 C         4.085199        -0.363215        -0.125373
 O         4.039580         1.113467         0.135661
 C         2.712460         1.071988        -0.548166
 C         2.988631        -0.211301        -1.256646
 O         1.810604        -0.893912        -0.935495
 H         0.097566         1.148205         1.055675
 H        -0.131187         1.063539        -0.782351
 H        -0.537296        -0.354458         0.196911
 H         2.572673         0.056100         2.202571
 H         1.536014        -1.303494         1.848050
 H         4.187178        -1.537578         1.742594
 H         3.531251        -2.203686         0.344017
 H         5.085147        -0.774506        -0.348639
 H         2.353715         1.974655        -0.980549
 H         3.383971        -0.355752        -2.201332
