19
Iteration:  1850
 C         0.181276         0.508724         0.275186
 C         1.611709         0.041118         0.150323
 C         2.231842        -0.604160         1.431476
 C         3.531865        -1.237845         0.947171
 C         4.102272        -0.383929        -0.123858
 O         3.978274         1.117772         0.145527
 C         2.722383         0.987710        -0.616325
 C         3.107907        -0.243616        -1.247394
 O         1.790838        -0.844633        -1.083451
 H         0.042065         1.486864         0.863108
 H        -0.348956         0.670198        -0.670238
 H        -0.444212        -0.321312         0.716324
 H         2.604309         0.275864         2.053094
 H         1.645648        -1.294587         2.040851
 H         4.174742        -1.649787         1.765907
 H         3.347040        -2.151011         0.363282
 H         5.147032        -0.409224        -0.201446
 H         2.347082         1.833951        -1.086124
 H         3.326539        -0.395222        -2.311501
