19
Iteration:  1115
 C         0.159818         0.517391         0.222379
 C         1.578099         0.060683         0.093187
 C         2.251984        -0.621272         1.386235
 C         3.684089        -1.218743         1.061397
 C         4.134616        -0.362403        -0.118458
 O         3.956235         1.045599         0.187125
 C         2.744730         1.023310        -0.617024
 C         3.001926        -0.284554        -1.339346
 O         1.736599        -0.847987        -1.033998
 H        -0.019594         1.413514         0.791700
 H        -0.152159         0.901213        -0.784674
 H        -0.464722        -0.128734         0.807335
 H         2.436788         0.184829         2.127905
 H         1.480504        -1.277066         1.730485
 H         4.425162        -1.132063         1.952096
 H         3.616922        -2.274769         0.779703
 H         5.175315        -0.558849        -0.451722
 H         2.349835         2.036206        -1.038782
 H         3.417433        -0.472709        -2.298340
