19
Iteration:  4800charge 0 multiplicity 1
 C         0.182126         0.507821         0.247393
 C         1.625594         0.045447         0.144551
 C         2.305206        -0.596573         1.401426
 C         3.670884        -1.142620         1.064607
 C         4.118166        -0.409649        -0.154681
 O         3.878258         0.970471         0.209059
 C         2.751727         1.036681        -0.575416
 C         2.999761        -0.265704        -1.377982
 O         1.734361        -0.847560        -1.078634
 H         0.062824         0.976434         1.277767
 H         0.032173         1.356078        -0.440435
 H        -0.590278        -0.196032        -0.168019
 H         2.319798         0.364620         1.967819
 H         1.628174        -1.283629         1.863150
 H         4.450681        -0.899234         1.822138
 H         3.654590        -2.151246         0.683833
 H         5.204213        -0.493189        -0.435132
 H         2.411223         2.000416        -0.915134
 H         3.195191        -0.523664        -2.413106
