19
Iteration:  3601charge 0 multiplicity 1
 C         0.198206         0.609923         0.198945
 C         1.587665         0.022183         0.158161
 C         2.231380        -0.710649         1.373515
 C         3.555427        -1.251326         0.930300
 C         4.109512        -0.333032        -0.251231
 O         4.063515         1.067497         0.245167
 C         2.693767         1.068642        -0.503047
 C         2.953153        -0.181758        -1.309593
 O         1.844666        -0.939234        -0.952272
 H         0.176662         1.583406         0.773927
 H        -0.083231         0.863928        -0.917058
 H        -0.581908        -0.149515         0.622243
 H         2.116859         0.050390         2.198136
 H         1.604410        -1.576870         1.443655
 H         4.251931        -1.315997         1.770555
 H         3.389726        -2.178814         0.396225
 H         5.154770        -0.583194        -0.500776
 H         2.307842         2.067142        -0.899084
 H         3.205005        -0.273775        -2.402541
