19
Iteration:  4260charge 0 multiplicity 1
 C         0.093143         0.525932         0.281636
 C         1.562869         0.095587         0.146642
 C         2.186547        -0.558329         1.373687
 C         3.488910        -1.163365         0.931397
 C         4.197784        -0.388030        -0.224233
 O         3.967412         0.998534         0.186223
 C         2.784558         1.022866        -0.516606
 C         3.084591        -0.297723        -1.338134
 O         1.858399        -0.850777        -1.000680
 H        -0.041888         1.144903         1.185864
 H        -0.367937         1.099029        -0.580868
 H        -0.362266        -0.431925         0.445471
 H         2.307379         0.074060         2.239587
 H         1.544299        -1.408878         1.757992
 H         4.181238        -1.008632         1.724387
 H         3.428360        -2.299717         0.665289
 H         5.228394        -0.571429        -0.492532
 H         2.544554         1.951578        -1.119969
 H         3.561720        -0.526078        -2.319157
