19
Iteration:  3072
 C         0.186203         0.605108         0.345488
 C         1.615369         0.096710         0.073884
 C         2.172572        -0.612164         1.274308
 C         3.542803        -1.294132         0.924010
 C         4.165767        -0.372582        -0.237422
 O         3.930790         1.096298         0.238477
 C         2.701562         1.035568        -0.535576
 C         3.079127        -0.252623        -1.310767
 O         1.867755        -0.941069        -0.950221
 H         0.046390         1.497098         1.009658
 H        -0.247830         0.955202        -0.583478
 H        -0.359178        -0.268343         0.598629
 H         2.264659         0.136236         2.038340
 H         1.517510        -1.469463         1.644271
 H         4.164631        -1.147958         1.855041
 H         3.431402        -2.374336         0.661380
 H         5.233112        -0.535340        -0.534170
 H         2.300162         1.916379        -0.997214
 H         3.331255        -0.435138        -2.381318
