19
Iteration:  1376charge 0 multiplicity 1
 C         0.158256         0.470903         0.270677
 C         1.624952         0.132210         0.141008
 C         2.195680        -0.471397         1.377128
 C         3.499029        -1.275726         0.919084
 C         4.159760        -0.368195        -0.133278
 O         3.973505         1.063834         0.148520
 C         2.731779         1.115770        -0.601734
 C         3.045476        -0.272178        -1.314245
 O         1.887946        -0.976304        -0.944521
 H         0.125893         1.174144         1.047541
 H        -0.351193         0.894549        -0.676233
 H        -0.221562        -0.508184         0.493113
 H         2.381942         0.386373         2.087260
 H         1.411130        -1.216677         1.639921
 H         3.960720        -1.644191         1.795240
 H         3.251154        -2.238286         0.443371
 H         5.258874        -0.546697        -0.238718
 H         2.287364         1.895222        -1.094132
 H         3.156844        -0.342800        -2.334897
