19
Iteration:   497
 C         0.131323         0.512787         0.081374
 C         1.622566         0.087538         0.143967
 C         2.246497        -0.599930         1.377596
 C         3.708488        -1.094488         1.098207
 C         4.154340        -0.484307        -0.204542
 O         3.961876         1.036416         0.227125
 C         2.711622         1.001246        -0.541926
 C         2.972166        -0.315747        -1.312431
 O         1.719684        -0.813208        -1.011768
 H        -0.173270         1.236921         0.892913
 H        -0.195350         1.049722        -0.865116
 H        -0.534358        -0.346623         0.247275
 H         2.363999         0.141074         2.153649
 H         1.676681        -1.453683         1.846572
 H         4.538221        -0.790323         1.790219
 H         3.725159        -2.160416         0.967629
 H         5.205265        -0.732420        -0.630561
 H         2.494938         2.039659        -0.895962
 H         3.441593        -0.611510        -2.329106
