19
Iteration:  1047charge 0 multiplicity 1
 C         0.177875         0.491086         0.187591
 C         1.623239         0.084765         0.130656
 C         2.292300        -0.467301         1.432792
 C         3.655720        -1.189355         0.972503
 C         4.118622        -0.382711        -0.189122
 O         3.908947         1.023084         0.238239
 C         2.674438         0.944727        -0.539885
 C         3.089571        -0.298927        -1.291248
 O         1.717940        -0.854445        -1.064849
 H        -0.146656         1.039499         1.167488
 H         0.055151         1.188340        -0.636648
 H        -0.399110        -0.420016         0.141854
 H         2.500159         0.428420         1.984866
 H         1.597092        -1.201656         1.867002
 H         4.313324        -1.281234         1.849574
 H         3.662645        -2.286362         0.703506
 H         5.171076        -0.596673        -0.581954
 H         2.407241         1.922175        -1.025534
 H         3.239768        -0.449778        -2.353874
