19
Iteration:  1100
 C         0.115128         0.446196         0.191557
 C         1.633933         0.061409         0.205035
 C         2.241584        -0.574127         1.452674
 C         3.524857        -1.180082         0.979701
 C         4.124124        -0.382812        -0.122359
 O         4.055446         1.102371         0.061918
 C         2.763590         1.039572        -0.536791
 C         3.057696        -0.256655        -1.265244
 O         1.749735        -0.852682        -1.028195
 H         0.040812         1.413992         0.796237
 H        -0.239216         0.446653        -0.812983
 H        -0.492369        -0.439729         0.423012
 H         2.252632         0.264114         2.188269
 H         1.700532        -1.475741         1.891068
 H         4.134082        -1.502214         1.774142
 H         3.276380        -2.190318         0.443357
 H         5.161922        -0.699033        -0.430475
 H         2.516916         1.995144        -0.972580
 H         3.254758        -0.413716        -2.365283
