19
Iteration:  2020charge 0 multiplicity 1
 C         0.220814         0.558845         0.201296
 C         1.591984         0.042411         0.157174
 C         2.135443        -0.679339         1.379569
 C         3.540675        -1.165295         0.946566
 C         4.130517        -0.384315        -0.231419
 O         3.992037         1.117507         0.091649
 C         2.712398         1.121520        -0.485902
 C         3.020834        -0.203728        -1.303007
 O         1.899546        -0.978451        -0.908972
 H         0.078228         1.438370         0.918876
 H        -0.108309         0.821624        -0.804561
 H        -0.385822        -0.243650         0.732782
 H         2.325785        -0.107223         2.318066
 H         1.503734        -1.601029         1.649010
 H         4.174467        -1.503545         1.736762
 H         3.323793        -2.156658         0.505836
 H         5.188235        -0.645270        -0.492919
 H         2.095890         1.950235        -0.832918
 H         3.328835        -0.425294        -2.297192
