19
Iteration:  1048
 C         0.175660         0.484643         0.189981
 C         1.621923         0.084296         0.134751
 C         2.288986        -0.461657         1.432168
 C         3.646186        -1.183875         0.966839
 C         4.112047        -0.390495        -0.195057
 O         3.909125         1.020761         0.240120
 C         2.683437         0.950269        -0.541516
 C         3.086265        -0.291463        -1.293018
 O         1.725390        -0.860235        -1.058473
 H        -0.121642         1.039858         1.162664
 H         0.047653         1.192447        -0.679907
 H        -0.417099        -0.445766         0.123195
 H         2.533530         0.439638         2.013892
 H         1.609805        -1.201716         1.854576
 H         4.351339        -1.311005         1.856519
 H         3.654276        -2.269251         0.703789
 H         5.168432        -0.602225        -0.571238
 H         2.413822         1.965616        -1.021057
 H         3.245175        -0.448536        -2.348285
