19
Iteration:  4222
 C         0.221399         0.574336         0.167900
 C         1.659912         0.023420         0.179491
 C         2.298783        -0.614387         1.490149
 C         3.561142        -1.259237         1.031901
 C         4.077381        -0.386744        -0.171192
 O         3.934300         1.073684         0.142608
 C         2.658378         1.038448        -0.488059
 C         3.020882        -0.250658        -1.333372
 O         1.804803        -0.884180        -1.127978
 H        -0.076539         0.955418         1.174783
 H         0.058876         1.314531        -0.616412
 H        -0.582548        -0.180975        -0.136765
 H         2.723981         0.321012         1.957305
 H         1.689722        -1.152428         2.189235
 H         4.232995        -1.284388         1.951621
 H         3.500124        -2.267508         0.768331
 H         5.151728        -0.573073        -0.422617
 H         2.397346         2.010130        -0.884178
 H         3.119171        -0.450717        -2.412745
