19
Iteration:  1073charge 0 multiplicity 1
 C         0.127456         0.409835         0.178598
 C         1.640271         0.107427         0.128944
 C         2.197083        -0.473694         1.437196
 C         3.435173        -1.276943         0.929711
 C         4.095977        -0.371874        -0.236022
 O         4.073559         1.020889         0.110320
 C         2.701281         1.090231        -0.497204
 C         3.033794        -0.147724        -1.352743
 O         1.934816        -0.957031        -0.856128
 H        -0.105730         1.073123         0.974530
 H        -0.290504         0.870556        -0.834181
 H        -0.338954        -0.622482         0.407877
 H         2.457145         0.497371         1.991411
 H         1.471046        -1.111831         1.918346
 H         4.069848        -1.474121         1.900030
 H         3.305324        -2.284355         0.631049
 H         5.060624        -0.717348        -0.535930
 H         2.480109         2.152398        -0.831341
 H         3.011395        -0.224051        -2.420027
