19
Iteration:    72
 C         0.202770         0.632087         0.271178
 C         1.608826         0.052881         0.117660
 C         2.115835        -0.594302         1.419787
 C         3.496777        -1.306564         1.028925
 C         4.107520        -0.350000        -0.034701
 O         3.972348         1.200164        -0.018939
 C         2.722606         0.987290        -0.680595
 C         3.127788        -0.339790        -1.223706
 O         1.861696        -0.911710        -0.982210
 H         0.236964         1.511016         1.054343
 H        -0.245359         0.939201        -0.712114
 H        -0.420829        -0.182346         0.723537
 H         2.231125        -0.040635         2.351323
 H         1.449155        -1.471534         1.617341
 H         4.199900        -1.570112         1.926323
 H         3.372465        -2.231305         0.376626
 H         5.160210        -0.616782        -0.224176
 H         2.445081         1.828748        -1.338796
 H         3.658458        -0.525684        -2.214333
