19
Iteration:  2327
 C         0.194928         0.494034         0.374677
 C         1.612629         0.068577         0.057679
 C         2.207313        -0.485999         1.307904
 C         3.583167        -1.182428         0.990116
 C         4.115406        -0.420998        -0.216129
 O         3.932234         0.992273         0.171727
 C         2.699047         1.048229        -0.515373
 C         3.139902        -0.168273        -1.302858
 O         1.808224        -0.947092        -1.052169
 H         0.154223         0.990882         1.394659
 H        -0.277785         0.964842        -0.406011
 H        -0.437786        -0.389570         0.564775
 H         2.129884         0.224985         2.203115
 H         1.418366        -1.336621         1.464386
 H         4.317774        -1.265573         1.851762
 H         3.413592        -2.378562         0.693803
 H         5.156686        -0.432340        -0.565088
 H         2.351041         1.981003        -0.834282
 H         3.317750        -0.092594        -2.309676
