19
Iteration:   337
 C         0.068535         0.543676         0.262870
 C         1.644865         0.169895         0.040001
 C         2.164106        -0.521930         1.358325
 C         3.535030        -1.234758         0.958296
 C         4.140516        -0.370700        -0.106987
 O         3.952271         1.080368         0.100306
 C         2.709963         1.032987        -0.581309
 C         3.159849        -0.323916        -1.301124
 O         1.870955        -0.957576        -0.895988
 H         0.143525         1.245072         1.191615
 H        -0.211517         0.950279        -0.631384
 H        -0.405257        -0.384771         0.460133
 H         2.222343         0.102518         2.269627
 H         1.380083        -1.296207         1.583260
 H         4.244268        -1.461768         1.790422
 H         3.305260        -2.285019         0.437792
 H         5.164705        -0.670681        -0.275799
 H         2.393429         2.007750        -1.026646
 H         3.536576        -0.482896        -2.301220
