19
Iteration:  4413charge 0 multiplicity 1
 C         0.139194         0.471218         0.195146
 C         1.594774         0.124317         0.090587
 C         2.238908        -0.463163         1.417057
 C         3.614817        -1.153586         1.016724
 C         4.124235        -0.458366        -0.243752
 O         3.976575         0.953557         0.301027
 C         2.754448         1.066033        -0.543836
 C         3.030527        -0.237484        -1.373619
 O         1.775604        -0.878986        -1.009645
 H        -0.150809         0.810131         1.174824
 H        -0.310921         1.126232        -0.569477
 H        -0.306112        -0.482687         0.297398
 H         2.321698         0.246992         2.145534
 H         1.728941        -1.399647         1.694703
 H         4.464609        -1.163942         1.530047
 H         3.307406        -2.179390         0.807347
 H         5.037895        -0.635323        -0.727636
 H         2.648313         2.029460        -1.028795
 H         3.277884        -0.502183        -2.352968
