19
Iteration:  1139charge 0 multiplicity 1
 C         0.293346         0.692615         0.343312
 C         1.566488         0.026243         0.051599
 C         2.203094        -0.628366         1.268244
 C         3.634256        -1.046370         1.042255
 C         4.128009        -0.403437        -0.211273
 O         3.839199         1.006896         0.259304
 C         2.663706         0.936479        -0.565213
 C         3.060358        -0.289261        -1.342388
 O         1.847620        -0.981003        -1.047523
 H         0.335523         1.461717         1.045207
 H        -0.087450         1.184898        -0.573567
 H        -0.461187         0.014491         0.820658
 H         2.178122         0.005554         2.188676
 H         1.546941        -1.487639         1.357921
 H         4.420029        -0.753225         1.852942
 H         3.639373        -2.108789         1.012911
 H         5.142837        -0.560707        -0.466560
 H         2.278246         1.893620        -0.982618
 H         3.440089        -0.299918        -2.357448
