19
Iteration:   949charge 0 multiplicity 1
 C         0.167557         0.511485         0.184401
 C         1.608524         0.026034         0.139568
 C         2.292290        -0.592830         1.409006
 C         3.662550        -1.226912         1.016869
 C         4.171512        -0.377044        -0.144884
 O         3.958280         1.076028         0.167049
 C         2.674652         0.918255        -0.488358
 C         2.995596        -0.268610        -1.280663
 O         1.691108        -0.791002        -1.114478
 H         0.075114         1.663262         0.492862
 H         0.031348         0.585637        -0.879571
 H        -0.501054        -0.096190         0.778841
 H         2.614624         0.271217         2.016828
 H         1.575742        -1.294770         1.918887
 H         4.483922        -1.192307         1.883780
 H         3.566568        -2.342898         0.773156
 H         5.304099        -0.482472        -0.319945
 H         2.267634         1.914614        -0.884707
 H         3.329539        -0.244077        -2.326701
