19
Iteration:   502charge 0 multiplicity 1
 C         0.140218         0.539279         0.106055
 C         1.617220         0.059938         0.141628
 C         2.254524        -0.625075         1.407386
 C         3.726616        -1.084037         1.109944
 C         4.125205        -0.483674        -0.165130
 O         3.963184         1.051314         0.161078
 C         2.728227         1.015114        -0.537589
 C         2.996196        -0.316299        -1.310907
 O         1.726499        -0.818059        -1.045439
 H        -0.167882         1.193385         0.976528
 H         0.015201         1.001832        -0.851840
 H        -0.636472        -0.229503         0.247408
 H         2.080300         0.133841         2.234655
 H         1.734906        -1.528513         1.723755
 H         4.402522        -0.874484         1.933236
 H         3.720940        -2.198548         0.920618
 H         5.055777        -0.733807        -0.599371
 H         2.337525         1.988660        -0.854308
 H         3.380123        -0.517844        -2.270831
