19
Iteration:  2094
 C         0.216545         0.482040         0.380640
 C         1.626861         0.086398         0.069268
 C         2.158540        -0.607897         1.319013
 C         3.559622        -1.138473         1.010977
 C         4.156517        -0.396318        -0.154687
 O         3.951906         1.097308         0.142160
 C         2.740894         0.975078        -0.549401
 C         3.037308        -0.247834        -1.348853
 O         1.806350        -0.909033        -1.025856
 H         0.136356         1.062145         1.300089
 H        -0.098357         1.124319        -0.541868
 H        -0.503248        -0.362345         0.398786
 H         2.193991         0.218815         2.035044
 H         1.447026        -1.418204         1.715875
 H         4.248470        -1.208328         1.901103
 H         3.542159        -2.248247         0.678615
 H         5.227924        -0.452953        -0.477963
 H         2.332437         1.947514        -0.857120
 H         3.403030        -0.282688        -2.412150
