19
Iteration:   806
 C         0.187911         0.509786         0.262134
 C         1.628644         0.056034         0.112842
 C         2.214023        -0.658152         1.359976
 C         3.525152        -1.296645         1.001031
 C         4.217485        -0.273882        -0.027760
 O         3.976929         1.150240         0.061857
 C         2.693591         1.009131        -0.588583
 C         3.064448        -0.321823        -1.288669
 O         1.766743        -0.822766        -0.997662
 H         0.257570         1.245341         1.111618
 H        -0.018658         1.005944        -0.603649
 H        -0.535903        -0.198521         0.454662
 H         2.377652        -0.002233         2.181085
 H         1.478122        -1.428909         1.778820
 H         4.170257        -1.559382         1.856440
 H         3.299094        -2.053858         0.324787
 H         5.218791        -0.620815        -0.377223
 H         2.181913         1.823643        -1.077298
 H         3.315789        -0.508979        -2.321123
