19
Iteration:  2279
 C         0.183949         0.440786         0.149611
 C         1.604215         0.072019         0.179385
 C         2.326683        -0.568490         1.408138
 C         3.570736        -1.241528         0.927729
 C         4.167989        -0.435893        -0.218400
 O         3.983802         1.068503         0.149054
 C         2.629612         1.024058        -0.502693
 C         2.991819        -0.188281        -1.249015
 O         1.802317        -0.817811        -0.937953
 H         0.028459         1.160657         0.911732
 H        -0.088652         1.008631        -0.827198
 H        -0.528394        -0.388393         0.292588
 H         2.369482         0.179494         2.183367
 H         1.557187        -1.321614         1.729512
 H         4.252237        -1.457191         1.761264
 H         3.395159        -2.267280         0.505958
 H         5.187760        -0.762936        -0.586301
 H         2.341941         2.081360        -0.936353
 H         3.225924        -0.243793        -2.415189
