19
Iteration:  1667charge 0 multiplicity 1
 C         0.127347         0.528669         0.138299
 C         1.585018         0.117380         0.146042
 C         2.193132        -0.574157         1.345204
 C         3.563289        -1.205977         0.914397
 C         4.135235        -0.399562        -0.224014
 O         3.963958         1.056808         0.196833
 C         2.737441         1.007768        -0.535309
 C         3.039657        -0.197637        -1.263164
 O         1.869880        -0.951771        -0.896088
 H         0.048624         1.431838         0.764018
 H        -0.294250         0.619328        -0.900866
 H        -0.428125        -0.199465         0.692077
 H         2.337225         0.144303         2.130829
 H         1.530624        -1.382096         1.754167
 H         4.402663        -1.115888         1.664893
 H         3.466686        -2.274130         0.754864
 H         5.152196        -0.673859        -0.451940
 H         2.605079         2.133571        -0.861132
 H         3.281672        -0.453808        -2.285419
