19
Iteration:  4133charge 0 multiplicity 1
 C         0.176799         0.616640         0.300471
 C         1.510091        -0.066315         0.042835
 C         2.235943        -0.626041         1.362012
 C         3.662356        -1.275778         1.071794
 C         4.131117        -0.379276        -0.222149
 O         3.979702         1.110368         0.221616
 C         2.772294         1.055647        -0.467488
 C         3.024438        -0.236086        -1.330059
 O         1.748181        -0.912127        -1.140797
 H         0.279382         1.572570         0.795959
 H        -0.222659         0.634516        -0.766813
 H        -0.563057         0.014985         0.947544
 H         2.374916         0.281705         1.913095
 H         1.448961        -1.204064         1.908505
 H         4.250656        -1.017044         1.976173
 H         3.705270        -2.318654         0.861260
 H         5.162860        -0.637727        -0.496391
 H         2.453877         1.959031        -0.874719
 H         3.322095        -0.298429        -2.323895
