19
Iteration:  1117
 C         0.167778         0.533475         0.225756
 C         1.592662         0.078232         0.086011
 C         2.250669        -0.625497         1.386535
 C         3.694611        -1.223420         1.042899
 C         4.144461        -0.377057        -0.122836
 O         3.933570         1.043324         0.194988
 C         2.730676         1.022247        -0.612382
 C         3.016652        -0.277880        -1.331902
 O         1.732518        -0.860854        -1.034660
 H         0.080351         1.415787         0.816933
 H        -0.219605         0.907314        -0.769019
 H        -0.497752        -0.145077         0.800990
 H         2.365517         0.249146         2.058936
 H         1.471042        -1.283049         1.695079
 H         4.381211        -1.085366         1.965227
 H         3.702142        -2.289422         0.906832
 H         5.140453        -0.538652        -0.462065
 H         2.360215         1.992840        -1.022603
 H         3.403047        -0.478544        -2.318648
