19
Iteration:  1187charge 0 multiplicity 1
 C         0.210768         0.550522         0.203003
 C         1.595180         0.078053         0.196175
 C         2.163503        -0.681868         1.361518
 C         3.595715        -1.212065         1.035959
 C         4.163885        -0.322588        -0.117113
 O         4.003356         1.143848         0.037399
 C         2.722149         1.042035        -0.574527
 C         3.049997        -0.340279        -1.239852
 O         1.749573        -0.866310        -0.964985
 H        -0.143863         1.372166         0.974841
 H        -0.018054         0.998838        -0.790388
 H        -0.560469        -0.259706         0.435866
 H         2.322171        -0.188581         2.413134
 H         1.525344        -1.673041         1.323629
 H         4.340336        -1.422409         1.792802
 H         3.565999        -2.263594         0.458323
 H         5.216407        -0.598640        -0.401915
 H         2.314641         1.880812        -1.083026
 H         3.393314        -0.415797        -2.333036
