19
Iteration:  4186charge 0 multiplicity 1
 C         0.154182         0.547343         0.236751
 C         1.573323         0.207599         0.112056
 C         2.185487        -0.676962         1.272916
 C         3.525898        -1.224546         0.935824
 C         4.172839        -0.324808        -0.204679
 O         4.046645         1.092692         0.172116
 C         2.741035         1.102932        -0.550600
 C         2.979302        -0.347625        -1.282788
 O         1.851050        -0.986534        -0.882729
 H         0.051533         1.133989         1.106073
 H        -0.142697         1.175412        -0.610966
 H        -0.365768        -0.377212         0.368437
 H         2.322726        -0.069567         2.117948
 H         1.363282        -1.403157         1.565282
 H         4.151498        -1.139680         1.794575
 H         3.465036        -2.264258         0.530788
 H         5.202824        -0.635900        -0.358336
 H         2.387123         2.075433        -0.750327
 H         3.237725        -0.371817        -2.298166
