19
Iteration:   333
 C         0.108797         0.535279         0.287559
 C         1.614381         0.155890         0.006545
 C         2.183951        -0.502943         1.346193
 C         3.518499        -1.232211         0.949202
 C         4.127483        -0.365407        -0.141198
 O         3.923017         1.040721         0.159664
 C         2.705768         1.049966        -0.616778
 C         3.161221        -0.324619        -1.276920
 O         1.904645        -0.958311        -0.891613
 H         0.094363         1.205386         1.194329
 H        -0.247331         1.021584        -0.680154
 H        -0.400945        -0.423701         0.476539
 H         2.311221         0.181553         2.174989
 H         1.324626        -1.162516         1.676633
 H         4.299997        -1.354659         1.727797
 H         3.251231        -2.168645         0.564955
 H         5.187920        -0.761764        -0.359021
 H         2.444246         2.062142        -1.006720
 H         3.470616        -0.480751        -2.383883
