19
Iteration:  1726charge 0 multiplicity 1
 C         0.189571         0.516364         0.329087
 C         1.600043         0.097953         0.113747
 C         2.175293        -0.564272         1.289071
 C         3.462845        -1.254260         1.020888
 C         4.181694        -0.336489        -0.142481
 O         4.016894         1.066394         0.124169
 C         2.621752         0.996473        -0.571373
 C         3.079020        -0.228654        -1.320456
 O         1.888724        -0.940049        -0.984753
 H         0.272440         1.333196         1.069479
 H        -0.282558         1.017715        -0.548549
 H        -0.496844        -0.343626         0.648528
 H         2.149887         0.188611         2.101551
 H         1.439275        -1.277806         1.584363
 H         4.278667        -1.102635         1.775228
 H         3.358236        -2.382306         0.749557
 H         5.262940        -0.654252        -0.448160
 H         2.357587         2.034218        -1.094929
 H         3.468247        -0.333279        -2.362534
