19
Iteration:   839
 C         0.220206         0.638846         0.252216
 C         1.589912         0.063602         0.121631
 C         2.149622        -0.740625         1.339030
 C         3.603369        -1.065567         1.057801
 C         4.131112        -0.364148        -0.241363
 O         3.983609         1.015804         0.136054
 C         2.661177         0.991591        -0.539490
 C         3.013233        -0.228643        -1.342574
 O         1.873667        -0.959789        -0.947759
 H         0.067078         1.043157         1.275506
 H         0.179855         1.502785        -0.301089
 H        -0.593472         0.060547        -0.001382
 H         2.022164        -0.289073         2.292755
 H         1.473541        -1.618737         1.189317
 H         4.260529        -0.820292         1.908144
 H         3.846200        -2.057324         1.082568
 H         5.146444        -0.630947        -0.636776
 H         2.244102         1.943955        -0.871122
 H         3.232702        -0.347452        -2.390467
