19
Iteration:  4115
 C         0.172253         0.560191         0.223416
 C         1.638720         0.102963         0.157354
 C         2.222959        -0.631852         1.347604
 C         3.595344        -1.214929         0.912388
 C         4.113640        -0.404072        -0.134005
 O         3.935786         0.996844         0.189904
 C         2.658098         1.018485        -0.566623
 C         3.061711        -0.185047        -1.308685
 O         1.852061        -0.895684        -0.987357
 H         0.250412         1.539345         0.778327
 H        -0.327811         0.865280        -0.678097
 H        -0.365482        -0.105319         0.916825
 H         2.280305         0.111519         2.219089
 H         1.574151        -1.426159         1.678722
 H         4.253628        -1.104549         1.829432
 H         3.416839        -2.237431         0.588512
 H         5.129966        -0.645746        -0.480144
 H         2.251178         2.011303        -0.959469
 H         3.396812        -0.350549        -2.383694
