19
Iteration:   887charge 0 multiplicity 1
 C         0.159356         0.470409         0.250931
 C         1.583616         0.063617         0.132305
 C         2.232166        -0.614668         1.398165
 C         3.607003        -1.212421         1.025818
 C         4.141398        -0.376742        -0.076442
 O         3.975131         1.085200         0.073532
 C         2.757680         1.042541        -0.554582
 C         3.068726        -0.289725        -1.289345
 O         1.739786        -0.808572        -1.059789
 H        -0.015076         0.934718         1.187160
 H        -0.205888         1.239210        -0.546330
 H        -0.505284        -0.454166         0.193910
 H         2.327189         0.275947         2.121375
 H         1.629812        -1.412358         1.843001
 H         4.412935        -1.428172         1.756633
 H         3.513820        -2.266644         0.676057
 H         5.155071        -0.636554        -0.349067
 H         2.294161         1.954095        -1.073102
 H         3.371566        -0.394571        -2.346533
