19
Iteration:   585charge 0 multiplicity 1
 C         0.237270         0.533176         0.187901
 C         1.619570        -0.037217         0.087213
 C         2.315942        -0.518587         1.424175
 C         3.643060        -1.175659         1.027759
 C         4.091630        -0.370808        -0.115785
 O         3.915259         1.063405         0.226999
 C         2.682511         0.985553        -0.541080
 C         3.070139        -0.317522        -1.316553
 O         1.671013        -0.871927        -1.093559
 H         0.442202         1.529033         0.548871
 H        -0.044936         0.811813        -0.814064
 H        -0.531316        -0.063621         0.628700
 H         2.299739         0.448722         1.828503
 H         1.687785        -1.213715         2.038523
 H         4.316808        -1.134853         1.932200
 H         3.499959        -2.229241         0.867811
 H         5.175090        -0.545475        -0.457981
 H         2.347379         1.913677        -1.063656
 H         3.514770        -0.542975        -2.358359
