19
Iteration:  1098
 C         0.123247         0.430141         0.184336
 C         1.632695         0.071918         0.206302
 C         2.233232        -0.571166         1.471653
 C         3.509593        -1.181836         0.949125
 C         4.136725        -0.391408        -0.130288
 O         4.064115         1.107447         0.046978
 C         2.761066         1.043415        -0.521830
 C         3.064776        -0.248017        -1.256624
 O         1.755698        -0.859566        -1.016992
 H        -0.022987         1.357506         0.775139
 H        -0.217687         0.536311        -0.849632
 H        -0.493601        -0.469883         0.525020
 H         2.231254         0.303560         2.148887
 H         1.649120        -1.452500         1.872052
 H         4.085924        -1.521166         1.771539
 H         3.239303        -2.181190         0.484001
 H         5.125638        -0.706482        -0.420014
 H         2.483814         1.946768        -0.940723
 H         3.288411        -0.379657        -2.349580
