19
Iteration:  1496charge 0 multiplicity 1
 C         0.243163         0.628615         0.261025
 C         1.595240         0.018170         0.103276
 C         2.211836        -0.584079         1.331067
 C         3.610097        -1.113151         1.031765
 C         4.151177        -0.397900        -0.184169
 O         3.852795         1.021499         0.232381
 C         2.692016         0.948455        -0.565944
 C         3.070248        -0.300246        -1.306189
 O         1.807854        -0.908899        -1.067913
 H         0.302699         1.486310         0.918859
 H        -0.298684         0.920124        -0.758383
 H        -0.369216        -0.166193         0.715556
 H         2.438966         0.267565         2.099794
 H         1.401176        -1.282072         1.700773
 H         4.414525        -1.059271         1.730142
 H         3.493282        -2.278251         0.898857
 H         5.251904        -0.479199        -0.414298
 H         2.408758         1.832796        -0.984269
 H         3.512330        -0.219084        -2.262328
