19
Iteration:   257charge 0 multiplicity 1
 C         0.171457         0.576602         0.151156
 C         1.629836         0.161286         0.129852
 C         2.046695        -0.680785         1.332633
 C         3.580347        -1.074349         1.009407
 C         4.157668        -0.331754        -0.219724
 O         4.074657         1.040527         0.113297
 C         2.733226         1.080637        -0.550900
 C         3.010504        -0.327286        -1.315784
 O         1.864123        -0.986000        -0.811611
 H        -0.082331         1.270007         0.978580
 H        -0.239670         0.958375        -0.794320
 H        -0.282937        -0.379243         0.438889
 H         1.769110        -0.373342         2.329039
 H         1.461282        -1.628918         1.194381
 H         4.123676        -0.768033         1.952568
 H         3.473865        -2.158332         0.870150
 H         5.179274        -0.735978        -0.601749
 H         2.289840         2.025380        -0.934438
 H         3.356829        -0.702030        -2.367489
