19
Iteration:  2160
 C         0.153125         0.517183         0.207892
 C         1.629857        -0.014476         0.123551
 C         2.280713        -0.529071         1.433579
 C         3.685537        -1.167879         1.009337
 C         4.067584        -0.403074        -0.254772
 O         3.937314         1.000064         0.204398
 C         2.704680         1.050613        -0.456495
 C         3.002874        -0.166198        -1.348749
 O         1.778150        -0.920114        -1.062618
 H         0.009802         1.315267         0.937893
 H        -0.056480         0.985616        -0.795430
 H        -0.503372        -0.347187         0.411180
 H         2.611240         0.208865         2.149522
 H         1.683927        -1.258235         2.083910
 H         4.434220        -1.205383         1.844194
 H         3.513527        -2.288544         0.712819
 H         5.062584        -0.812258        -0.588681
 H         2.311185         1.987891        -0.832557
 H         3.207733        -0.084504        -2.436518
