19
Iteration:   471
 C         0.127877         0.439519         0.174464
 C         1.639424         0.115949         0.109614
 C         2.234752        -0.359009         1.356111
 C         3.537247        -1.210752         0.969634
 C         4.145518        -0.440129        -0.179265
 O         3.951817         0.972674         0.208651
 C         2.716753         1.051861        -0.551079
 C         3.029941        -0.221578        -1.313284
 O         1.867445        -0.959581        -0.916168
 H        -0.176005         1.215738         0.819111
 H        -0.269284         0.831915        -0.804865
 H        -0.466395        -0.498241         0.404280
 H         2.400506         0.473623         2.108019
 H         1.650553        -1.114988         1.814935
 H         4.295655        -1.335822         1.763186
 H         3.230550        -2.227796         0.469275
 H         5.112145        -0.672509        -0.555373
 H         2.548683         2.074059        -0.855970
 H         3.406865        -0.240923        -2.303105
