19
Iteration:  1686charge 0 multiplicity 1
 C         0.153278         0.485426         0.141127
 C         1.616314         0.072380         0.119460
 C         2.303319        -0.503279         1.394121
 C         3.681158        -1.219903         1.037494
 C         4.121045        -0.425512        -0.195491
 O         3.965896         0.990814         0.240490
 C         2.655631         1.038423        -0.516596
 C         3.040748        -0.265709        -1.326351
 O         1.740313        -0.828454        -1.049065
 H        -0.097389         1.504391         0.556267
 H        -0.139033         0.404545        -0.856159
 H        -0.552395        -0.273302         0.587657
 H         2.647539         0.296531         2.157135
 H         1.503827        -1.135102         1.852063
 H         4.194973        -1.291551         2.004869
 H         3.568807        -2.256386         0.890053
 H         5.142169        -0.564119        -0.451769
 H         2.358236         1.977734        -0.890889
 H         3.233045        -0.214906        -2.429067
