19
Iteration:   432charge 0 multiplicity 1
 C         0.248969         0.545803         0.267338
 C         1.618294         0.072429         0.133039
 C         2.211932        -0.594219         1.364040
 C         3.543745        -1.279774         1.041506
 C         4.151400        -0.345769        -0.001081
 O         3.939233         1.166887         0.049287
 C         2.701844         0.996876        -0.623261
 C         3.096608        -0.289224        -1.249328
 O         1.768486        -0.927635        -1.071077
 H         0.158534         1.312048         1.097460
 H         0.003086         0.904584        -0.754126
 H        -0.418457        -0.252150         0.584941
 H         2.363775         0.210751         2.060084
 H         1.317475        -1.147845         1.776656
 H         4.100768        -1.679772         1.906586
 H         3.228383        -2.106797         0.492267
 H         5.270035        -0.539643        -0.192058
 H         2.268684         1.868748        -1.175371
 H         3.528052        -0.440521        -2.310349
