19
Iteration:   173charge 0 multiplicity 1
 C         0.114121         0.465899         0.179619
 C         1.633756         0.143170         0.100788
 C         2.111051        -0.464421         1.389228
 C         3.472924        -1.181761         0.946701
 C         4.117222        -0.380639        -0.163715
 O         3.979968         1.015443         0.120997
 C         2.820192         1.094449        -0.614933
 C         3.019127        -0.272486        -1.320247
 O         1.962692        -1.001037        -0.841400
 H         0.009097         1.378280         1.058760
 H        -0.453734         0.855386        -0.641521
 H        -0.415657        -0.419142         0.537231
 H         2.266859         0.196128         2.279571
 H         1.459506        -1.354102         1.676079
 H         4.291626        -1.261880         1.684248
 H         3.312948        -2.334697         0.657864
 H         5.135890        -0.623112        -0.314809
 H         2.536412         2.176534        -0.962379
 H         3.337013        -0.466992        -2.330045
