19
Iteration:  3246
 C         0.204383         0.587581         0.205262
 C         1.657986         0.099118         0.207601
 C         2.132719        -0.804323         1.392407
 C         3.563624        -1.236376         0.929213
 C         4.141858        -0.287283        -0.140682
 O         4.009079         1.111371         0.115774
 C         2.741443         0.993289        -0.535941
 C         3.045352        -0.227104        -1.307122
 O         1.753386        -0.864992        -0.953728
 H        -0.070205         1.519766         0.938905
 H         0.078059         0.692354        -0.900953
 H        -0.489627        -0.271671         0.471910
 H         2.342321        -0.259407         2.291115
 H         1.242205        -1.501873         1.624108
 H         4.268900        -1.282131         1.801885
 H         3.486687        -2.225980         0.419402
 H         5.246850        -0.553763        -0.470029
 H         2.461353         1.864946        -1.049995
 H         3.402741        -0.189767        -2.395395
