19
Iteration:  3196charge 0 multiplicity 1
 C         0.234974         0.537395         0.218950
 C         1.615779        -0.030911         0.120055
 C         2.298560        -0.555499         1.455012
 C         3.552188        -1.187945         0.965063
 C         4.132884        -0.468099        -0.216330
 O         3.923648         1.070390         0.258533
 C         2.674714         1.001475        -0.476707
 C         3.036697        -0.238050        -1.355868
 O         1.771391        -0.824823        -1.154925
 H         0.116336         1.059266         1.126368
 H         0.021657         1.212181        -0.664920
 H        -0.450211        -0.300450         0.423967
 H         2.486928         0.256682         2.220680
 H         1.646563        -1.155997         2.087384
 H         4.373115        -1.125183         1.690572
 H         3.383780        -2.295105         0.888897
 H         5.169675        -0.752346        -0.332270
 H         2.237839         2.011279        -0.891385
 H         3.357629        -0.312096        -2.407402
