19
Iteration:  2319
 C         0.152047         0.398783         0.373610
 C         1.594558         0.079482         0.074794
 C         2.164562        -0.563335         1.306398
 C         3.542388        -1.223820         0.960231
 C         4.145663        -0.405509        -0.195283
 O         3.994867         1.050675         0.148516
 C         2.710758         1.084720        -0.532250
 C         3.106632        -0.212421        -1.319258
 O         1.828125        -0.868477        -0.998602
 H         0.178460         1.147563         1.235624
 H        -0.236754         1.137033        -0.404674
 H        -0.465400        -0.456439         0.585150
 H         2.344345         0.163207         2.147301
 H         1.576926        -1.322119         1.743184
 H         4.266808        -1.199565         1.773978
 H         3.175993        -2.205214         0.686575
 H         5.212350        -0.542986        -0.351279
 H         2.423215         1.981699        -1.124384
 H         3.375733        -0.285144        -2.384931
