19
Iteration:  1428
 C         0.148620         0.574230         0.166146
 C         1.616453         0.111211         0.117552
 C         2.221493        -0.608582         1.350323
 C         3.652599        -1.120936         1.001182
 C         4.124055        -0.380016        -0.182851
 O         3.957350         0.980257         0.205226
 C         2.751786         1.047963        -0.515411
 C         3.000586        -0.262469        -1.339206
 O         1.775845        -0.961645        -0.962475
 H         0.020834         1.124122         1.140179
 H        -0.091953         1.158861        -0.771376
 H        -0.475690        -0.306769         0.094472
 H         2.235490         0.234419         2.157685
 H         1.540006        -1.414769         1.732128
 H         4.213642        -0.894235         1.893078
 H         3.817933        -2.278864         0.908082
 H         5.145731        -0.661389        -0.569757
 H         2.405206         2.000441        -0.878834
 H         3.286343        -0.372041        -2.432567
