19
Iteration:  1816charge 0 multiplicity 1
 C         0.136395         0.436796         0.233988
 C         1.665487         0.172358         0.107570
 C         2.161152        -0.566496         1.348573
 C         3.569513        -1.174610         0.914905
 C         4.138926        -0.420089        -0.216533
 O         4.004618         0.998736         0.168211
 C         2.718706         1.064639        -0.520860
 C         3.031370        -0.238544        -1.310261
 O         1.840826        -0.881528        -0.910253
 H        -0.111976         1.200564         1.059209
 H        -0.255925         0.776802        -0.677937
 H        -0.330432        -0.577809         0.484886
 H         2.226664         0.238237         2.139410
 H         1.548698        -1.353006         1.708173
 H         4.147751        -1.188050         1.868953
 H         3.208079        -2.167121         0.669681
 H         5.201462        -0.566165        -0.390669
 H         2.401979         1.957189        -1.008095
 H         3.400100        -0.255085        -2.341063
