19
Iteration:  2607charge 0 multiplicity 1
 C         0.206338         0.540840         0.173793
 C         1.629564         0.090395         0.144363
 C         2.289574        -0.666853         1.357744
 C         3.642708        -1.252760         0.984224
 C         4.152392        -0.337446        -0.202313
 O         3.946746         1.063679         0.213335
 C         2.683557         1.053786        -0.487152
 C         3.011770        -0.210654        -1.342106
 O         1.716543        -0.913462        -0.986727
 H         0.009324         1.206038         0.976482
 H        -0.078679         0.985137        -0.733463
 H        -0.390228        -0.396229         0.270644
 H         2.486078         0.041124         2.189473
 H         1.540906        -1.308320         1.787684
 H         4.172132        -1.405502         1.962246
 H         3.517345        -2.294403         0.537326
 H         5.186736        -0.507255        -0.492287
 H         2.280986         2.016667        -0.906474
 H         3.287270        -0.119466        -2.429544
