19
Iteration:   771
 C         0.104243         0.437884         0.231937
 C         1.651240         0.089489         0.096284
 C         2.276054        -0.413396         1.344010
 C         3.539432        -1.224947         0.966351
 C         4.054684        -0.459042        -0.274836
 O         3.974699         0.949618         0.318835
 C         2.671642         1.089598        -0.516492
 C         3.001038        -0.178414        -1.383914
 O         1.925977        -0.946350        -1.012544
 H         0.127392         1.457968         0.643155
 H        -0.485442         0.593212        -0.594731
 H        -0.383661        -0.209964         0.935887
 H         2.549243         0.507022         1.827054
 H         1.617723        -1.029008         1.988166
 H         4.234393        -1.174088         1.790663
 H         3.390485        -2.295615         1.013796
 H         5.115405        -0.761658        -0.569323
 H         2.647238         2.152397        -0.672773
 H         3.215177        -0.165887        -2.495940
