19
Iteration:  2905charge 0 multiplicity 1
 C         0.172897         0.579017         0.245564
 C         1.631946         0.021424         0.076398
 C         2.230045        -0.596194         1.407131
 C         3.611459        -1.209511         1.007338
 C         4.146729        -0.420327        -0.228554
 O         3.954362         1.029298         0.288220
 C         2.683605         1.005474        -0.528311
 C         3.079367        -0.192902        -1.375660
 O         1.733840        -0.892583        -1.061191
 H         0.130691         1.568932         0.907374
 H        -0.250152         0.676719        -0.812941
 H        -0.433825        -0.299715         0.697206
 H         2.440911         0.246701         2.100495
 H         1.546849        -1.425204         1.885370
 H         4.416165        -1.002006         1.846299
 H         3.513289        -2.316048         0.839026
 H         5.210152        -0.509303        -0.556839
 H         2.411802         1.931753        -1.029280
 H         3.343774        -0.078359        -2.427598
