19
Iteration:   991
 C         0.285058         0.622514         0.332063
 C         1.646823         0.121494         0.170916
 C         2.058505        -0.798593         1.260935
 C         3.526299        -1.044584         1.000321
 C         4.168873        -0.428375        -0.192879
 O         3.924250         1.097044         0.074987
 C         2.699421         0.994700        -0.537966
 C         3.077513        -0.228782        -1.370171
 O         1.891960        -0.983577        -0.919535
 H         0.241821         1.387423         1.263907
 H        -0.162461         1.137246        -0.486459
 H        -0.382663        -0.179436         0.646638
 H         1.826857        -0.381368         2.198885
 H         1.382455        -1.688334         1.251580
 H         3.884230        -0.485024         1.827281
 H         3.847704        -2.146110         0.942603
 H         5.257301        -0.731026        -0.340780
 H         2.340652         1.924102        -0.957383
 H         3.176674        -0.287379        -2.467781
