19
Iteration:  1511
 C         0.180678         0.583193         0.235478
 C         1.633075         0.121176         0.066254
 C         2.255497        -0.477995         1.352801
 C         3.622807        -1.257639         0.976037
 C         4.102994        -0.387276        -0.173428
 O         3.856351         0.954427         0.294888
 C         2.675412         1.041444        -0.584724
 C         3.096801        -0.234996        -1.383997
 O         1.843548        -0.992893        -0.989360
 H         0.070488         1.596777         0.742617
 H        -0.198632         0.937020        -0.694466
 H        -0.501156        -0.193961         0.720944
 H         2.352366         0.360370         2.111898
 H         1.716957        -1.334346         1.809359
 H         4.155564        -0.942593         1.986878
 H         3.715052        -2.289361         0.767384
 H         5.129152        -0.560912        -0.467375
 H         2.350404         2.152161        -0.928754
 H         3.220125        -0.545237        -2.469293
