19
Iteration:  1792
 C         0.136304         0.563671         0.179440
 C         1.627538        -0.043564         0.110828
 C         2.232999        -0.566190         1.447708
 C         3.662431        -1.158825         1.052377
 C         4.068259        -0.422990        -0.230608
 O         4.044170         1.032702         0.198446
 C         2.684218         1.006557        -0.480093
 C         2.972856        -0.199550        -1.372560
 O         1.811904        -0.919879        -1.077824
 H         0.021170         1.174864         1.113307
 H         0.056687         1.236907        -0.633179
 H        -0.703872        -0.209502         0.117494
 H         2.360586         0.311161         2.085635
 H         1.693660        -1.286496         1.983557
 H         4.199597        -0.886722         1.951646
 H         3.504694        -2.267167         0.977780
 H         5.141862        -0.566368        -0.545868
 H         2.138119         2.021026        -0.718216
 H         3.295393        -0.261165        -2.423580
