19
Iteration:  2651charge 0 multiplicity 1
 C         0.209777         0.546125         0.231677
 C         1.623852         0.014598         0.164200
 C         2.189967        -0.633293         1.382530
 C         3.592247        -1.210153         1.019661
 C         4.146912        -0.337606        -0.204226
 O         4.022461         1.056281         0.142786
 C         2.709235         0.977554        -0.487680
 C         2.956840        -0.168703        -1.335259
 O         1.786389        -0.902931        -1.053570
 H        -0.012762         1.101695         1.105204
 H         0.027911         1.205554        -0.541780
 H        -0.457791        -0.346159         0.066014
 H         2.180266         0.149372         2.254014
 H         1.588286        -1.478300         1.748250
 H         4.376477        -1.067810         1.853091
 H         3.490207        -2.329393         0.838721
 H         5.179143        -0.561992        -0.488796
 H         2.294005         1.976023        -0.788401
 H         3.264766        -0.137910        -2.399606
