19
Iteration:  4457charge 0 multiplicity 1
 C         0.198197         0.625862         0.236777
 C         1.613058        -0.030675         0.104953
 C         2.174575        -0.673598         1.447116
 C         3.552557        -1.185892         0.981292
 C         4.121039        -0.291181        -0.153028
 O         4.045531         1.172434         0.109599
 C         2.691157         0.984843        -0.513101
 C         3.078265        -0.289565        -1.264157
 O         1.790547        -0.980953        -1.046141
 H         0.384442         1.454586         0.923427
 H         0.059450         1.192256        -0.723977
 H        -0.685305         0.098400         0.612438
 H         2.195099        -0.010510         2.235061
 H         1.517275        -1.588603         1.531738
 H         4.133093        -1.506551         1.763814
 H         3.338137        -2.105779         0.399072
 H         5.090190        -0.531125        -0.499746
 H         2.187058         1.918117        -0.728115
 H         3.278645        -0.434352        -2.279724
