19
Iteration:   534
 C         0.271362         0.665373         0.326245
 C         1.612686         0.004099         0.110555
 C         2.001425        -0.795811         1.321243
 C         3.521821        -1.067151         1.046378
 C         4.157836        -0.365787        -0.122261
 O         4.013182         1.210215        -0.002955
 C         2.726725         0.996264        -0.569900
 C         3.070274        -0.316333        -1.324385
 O         1.882794        -0.999977        -0.966239
 H         0.520979         1.301976         1.310406
 H        -0.029432         1.363178        -0.410492
 H        -0.484506        -0.113035         0.459887
 H         1.826256        -0.077746         2.160606
 H         1.356814        -1.677667         1.476902
 H         3.894880        -0.909363         2.023082
 H         3.702785        -2.124152         0.905904
 H         5.158261        -0.697467        -0.338497
 H         2.100267         1.827871        -0.870354
 H         3.296040        -0.476811        -2.345776
