19
Iteration:   902
 C         0.147812         0.433453         0.308903
 C         1.640205         0.114459         0.121031
 C         2.163077        -0.513703         1.365379
 C         3.447740        -1.260086         0.925067
 C         4.195775        -0.344660        -0.176908
 O         4.009541         1.095633         0.143608
 C         2.708168         1.047367        -0.583970
 C         3.090961        -0.242915        -1.336591
 O         1.853908        -0.924411        -0.932692
 H        -0.042698         1.094036         1.285348
 H        -0.282927         0.898021        -0.590995
 H        -0.318571        -0.571090         0.507924
 H         2.461329         0.200065         2.108480
 H         1.378996        -1.186033         1.781395
 H         3.990878        -1.483830         1.828746
 H         3.140916        -2.274631         0.363457
 H         5.267364        -0.609606        -0.415828
 H         2.462085         2.000276        -0.994080
 H         3.424632        -0.380752        -2.396014
