19
Iteration:  3251
 C         0.204289         0.603153         0.247551
 C         1.667941         0.076836         0.193691
 C         2.125081        -0.776033         1.398942
 C         3.599950        -1.272727         0.974692
 C         4.159135        -0.303569        -0.139119
 O         3.996876         1.102526         0.105529
 C         2.686755         1.021172        -0.524121
 C         3.023387        -0.233700        -1.302092
 O         1.776967        -0.853513        -1.017272
 H         0.107631         1.416598         0.824995
 H         0.091635         0.651186        -0.839722
 H        -0.447335        -0.230106         0.389132
 H         2.298407        -0.092717         2.296648
 H         1.286010        -1.416963         1.568744
 H         4.331961        -1.351721         1.765636
 H         3.549337        -2.187171         0.356489
 H         5.158216        -0.645966        -0.191280
 H         2.377864         1.977261        -1.098409
 H         3.283123        -0.253300        -2.347384
