19
Iteration:  4106charge 0 multiplicity 1
 C         0.239619         0.560851         0.251177
 C         1.624077         0.141594         0.166848
 C         2.181000        -0.562041         1.404570
 C         3.532911        -1.245712         0.903618
 C         4.177493        -0.322340        -0.239633
 O         3.911355         1.016130         0.179033
 C         2.674161         1.004738        -0.511151
 C         3.060107        -0.271453        -1.332110
 O         1.861542        -0.893479        -0.957597
 H         0.076141         1.424662         0.927225
 H        -0.078540         0.539280        -0.764810
 H        -0.412284        -0.207857         0.620741
 H         2.217152        -0.087053         2.435216
 H         1.381837        -1.322511         1.326929
 H         4.201726        -1.437196         1.787508
 H         3.480921        -2.295670         0.455939
 H         5.232557        -0.616935        -0.319028
 H         2.297715         2.008409        -0.954748
 H         3.382603        -0.402335        -2.446715
