19
Iteration:  3060
 C         0.209752         0.504138         0.324479
 C         1.614470         0.107252         0.123645
 C         2.137826        -0.630567         1.345548
 C         3.493730        -1.225313         0.911060
 C         4.170907        -0.392361        -0.148825
 O         3.957553         1.089949         0.137584
 C         2.656856         1.074097        -0.630019
 C         3.122182        -0.251186        -1.252154
 O         1.875881        -0.876804        -0.976381
 H         0.380635         1.196908         1.211979
 H        -0.256374         0.927389        -0.509351
 H        -0.350250        -0.213326         0.851882
 H         2.242068        -0.086304         2.241825
 H         1.330692        -1.412811         1.554870
 H         4.167067        -1.596943         1.747338
 H         3.233281        -2.158485         0.382311
 H         5.206757        -0.677214        -0.429345
 H         2.394274         1.963777        -1.107340
 H         3.467491        -0.351742        -2.282266
