19
Iteration:  4243
 C         0.231213         0.480122         0.230548
 C         1.618240         0.083220         0.048462
 C         2.264055        -0.475995         1.333847
 C         3.657819        -1.208434         1.013802
 C         4.111578        -0.434883        -0.172848
 O         3.950905         0.989003         0.278024
 C         2.692005         1.005862        -0.559264
 C         3.026512        -0.209426        -1.316097
 O         1.723606        -0.892098        -1.031801
 H         0.165995         1.004309         1.179559
 H        -0.083834         1.133124        -0.576909
 H        -0.559844        -0.290811         0.050568
 H         2.366398         0.433972         1.946184
 H         1.497962        -1.115892         1.785469
 H         4.355017        -1.316122         1.883619
 H         3.438340        -2.227873         0.818305
 H         5.157068        -0.673974        -0.482696
 H         2.380374         1.998921        -0.770401
 H         3.288808        -0.157579        -2.385916
