19
Iteration:  3888charge 0 multiplicity 1
 C         0.202189         0.558681         0.330209
 C         1.610823         0.042013         0.059555
 C         2.138655        -0.640590         1.353024
 C         3.481227        -1.221247         0.941995
 C         4.155123        -0.414444        -0.195866
 O         4.021474         1.096175         0.186565
 C         2.697285         1.073247        -0.582027
 C         3.116608        -0.225753        -1.299038
 O         1.819543        -0.905782        -0.975412
 H         0.187927         1.014858         1.350326
 H        -0.121530         1.325739        -0.365191
 H        -0.449395        -0.343158         0.289824
 H         2.099729         0.028448         2.230446
 H         1.431862        -1.446842         1.607846
 H         4.144905        -1.315254         1.758611
 H         3.453086        -2.276485         0.673343
 H         5.153485        -0.536152        -0.502434
 H         2.423800         2.060320        -1.044714
 H         3.416814        -0.390412        -2.343953
