19
Iteration:   278
 C         0.123933         0.475342         0.133880
 C         1.552360         0.081044         0.162355
 C         2.169023        -0.642166         1.421482
 C         3.593100        -1.169831         1.064236
 C         4.136924        -0.395256        -0.104994
 O         4.062061         1.111114         0.011565
 C         2.784194         1.010624        -0.528147
 C         3.034839        -0.262198        -1.266515
 O         1.783918        -0.874399        -0.974042
 H        -0.073490         1.261207         0.838438
 H        -0.017769         0.992966        -0.853246
 H        -0.670982        -0.283521         0.222545
 H         2.320278         0.050073         2.244582
 H         1.443542        -1.394209         1.801731
 H         4.262683        -0.984405         1.936743
 H         3.530651        -2.196151         0.824695
 H         5.144693        -0.827699        -0.404018
 H         2.422535         1.863705        -1.112906
 H         3.389597        -0.210280        -2.358671
