19
Iteration:  4996
 C         0.188256         0.482167         0.223459
 C         1.633508         0.051760         0.128804
 C         2.279728        -0.454203         1.406196
 C         3.612736        -1.150586         0.987205
 C         4.114128        -0.418202        -0.241002
 O         3.913434         0.920776         0.261899
 C         2.682015         1.018906        -0.544100
 C         3.007153        -0.185994        -1.392694
 O         1.774868        -0.901726        -1.042096
 H        -0.039220         0.577301         1.281783
 H         0.301766         1.449316        -0.114038
 H        -0.398128        -0.266630        -0.238508
 H         2.557494         0.247299         2.297103
 H         1.784226        -1.230113         1.957783
 H         4.270158        -0.775718         1.859259
 H         3.476818        -2.269713         0.915123
 H         5.106753        -0.746748        -0.628734
 H         2.387971         2.063620        -0.926818
 H         3.339268        -0.256643        -2.409709
