19
Iteration:   331
 C         0.139988         0.533585         0.297639
 C         1.597341         0.143295         0.004442
 C         2.190804        -0.496533         1.339589
 C         3.509336        -1.226585         0.950388
 C         4.128164        -0.368524        -0.157516
 O         3.912080         1.023944         0.190822
 C         2.706422         1.056783        -0.638262
 C         3.153635        -0.320216        -1.274578
 O         1.918508        -0.958131        -0.895971
 H         0.053034         1.150889         1.128807
 H        -0.299598         1.072327        -0.693639
 H        -0.425164        -0.451842         0.490661
 H         2.367787         0.254573         2.141690
 H         1.358688        -1.090592         1.706682
 H         4.287350        -1.294244         1.701075
 H         3.228370        -2.157038         0.611602
 H         5.155781        -0.743395        -0.391965
 H         2.482716         2.051037        -0.996388
 H         3.413896        -0.479375        -2.346429
