19
Iteration:  2302charge 0 multiplicity 1
 C         0.113543         0.459730         0.279842
 C         1.620975         0.074630         0.186415
 C         2.227128        -0.615487         1.426644
 C         3.529158        -1.266524         0.910615
 C         4.120066        -0.327785        -0.091451
 O         4.043704         1.128541         0.115601
 C         2.821766         1.040222        -0.603378
 C         3.042763        -0.246243        -1.306071
 O         1.753950        -0.844232        -1.029619
 H        -0.250624         0.968779         1.116518
 H        -0.384897         0.824975        -0.650302
 H        -0.264251        -0.598550         0.453537
 H         2.552105         0.120383         2.149749
 H         1.403191        -1.269052         1.923151
 H         4.130670        -1.519465         1.807736
 H         3.630168        -2.229951         0.268310
 H         5.138496        -0.593522        -0.512030
 H         2.327118         2.037043        -0.815942
 H         3.271340        -0.474476        -2.420571
