19
Iteration:  2099charge 0 multiplicity 1
 C         0.208515         0.484041         0.369406
 C         1.616132         0.082132         0.065703
 C         2.141206        -0.568648         1.313879
 C         3.572739        -1.174175         0.980717
 C         4.125623        -0.364162        -0.163967
 O         3.956034         1.079412         0.124260
 C         2.749677         0.983096        -0.511065
 C         3.030439        -0.264621        -1.339595
 O         1.863993        -0.904836        -0.994934
 H         0.105302         1.089088         1.312278
 H        -0.148362         1.059766        -0.428966
 H        -0.526508        -0.341121         0.320687
 H         2.256146         0.128614         2.191555
 H         1.487527        -1.365505         1.588047
 H         4.211807        -1.160963         1.840599
 H         3.414772        -2.152511         0.594467
 H         5.157868        -0.522022        -0.427557
 H         2.241871         1.860425        -0.957714
 H         3.367939        -0.292234        -2.358156
