19
Iteration:  4924charge 0 multiplicity 1
 C         0.206401         0.560229         0.292484
 C         1.640039         0.008047         0.085944
 C         2.220265        -0.656613         1.311628
 C         3.576960        -1.179414         0.985063
 C         4.129813        -0.343824        -0.196705
 O         3.969201         1.028493         0.188645
 C         2.652757         1.049782        -0.535027
 C         3.024122        -0.235605        -1.310344
 O         1.816972        -0.925997        -1.008015
 H         0.338611         1.534731         0.833772
 H        -0.258008         0.892152        -0.713199
 H        -0.343178        -0.198244         0.896371
 H         2.272957         0.103429         2.088339
 H         1.341762        -1.288228         1.617841
 H         4.173669        -0.920404         1.853094
 H         3.569414        -2.240581         0.791234
 H         5.178432        -0.553723        -0.503527
 H         2.352247         2.063435        -0.694707
 H         3.408047        -0.242060        -2.330816
