19
Iteration:  1852charge 0 multiplicity 1
 C         0.191743         0.527808         0.277483
 C         1.595067         0.019268         0.160134
 C         2.243859        -0.583592         1.413676
 C         3.523228        -1.228444         0.967503
 C         4.104669        -0.376318        -0.133162
 O         3.974976         1.108712         0.157939
 C         2.702758         0.965397        -0.606043
 C         3.111108        -0.243598        -1.262540
 O         1.811298        -0.842075        -1.091204
 H         0.044629         1.432193         0.886091
 H        -0.360600         0.698300        -0.745948
 H        -0.399144        -0.246630         0.758895
 H         2.593727         0.276844         2.058927
 H         1.593286        -1.316913         2.048281
 H         4.187082        -1.636016         1.740114
 H         3.394297        -2.116394         0.337158
 H         5.160893        -0.477442        -0.275364
 H         2.280674         1.782848        -1.009737
 H         3.274461        -0.397012        -2.344743
