19
Iteration:   684
 C         0.251363         0.721658         0.361532
 C         1.574748        -0.028136         0.049262
 C         2.180068        -0.613246         1.358966
 C         3.611708        -1.066724         1.065402
 C         4.095349        -0.377036        -0.188429
 O         3.871638         1.021495         0.235699
 C         2.704637         0.988836        -0.577676
 C         3.083909        -0.286569        -1.387624
 O         1.837915        -1.091560        -1.116729
 H         0.380202         1.134547         1.447205
 H         0.175176         1.599173        -0.281380
 H        -0.639025         0.108862         0.302021
 H         2.134702         0.255696         2.031558
 H         1.361345        -1.334211         1.732544
 H         4.371941        -0.682931         1.908697
 H         3.712815        -2.169583         0.951797
 H         5.183261        -0.522110        -0.539827
 H         2.424218         2.018737        -0.874675
 H         3.532747        -0.141294        -2.437409
