19
Iteration:  1227charge 0 multiplicity 1
 C         0.148239         0.404798         0.202569
 C         1.623266         0.047700         0.108150
 C         2.305749        -0.359011         1.422508
 C         3.553599        -1.212263         0.993860
 C         4.110270        -0.481002        -0.246109
 O         3.963265         0.927346         0.182609
 C         2.646335         1.022976        -0.460804
 C         3.016366        -0.125335        -1.291061
 O         1.840119        -0.912407        -1.071556
 H         0.048428         1.115092         0.980094
 H         0.082153         0.911427        -0.731181
 H        -0.427045        -0.502941         0.430005
 H         2.452522         0.612086         1.886099
 H         1.680915        -0.860851         2.137976
 H         4.293735        -0.978537         1.807312
 H         3.155400        -2.177889         0.861645
 H         5.118476        -0.645199        -0.572217
 H         2.511317         2.102344        -0.641930
 H         3.399348        -0.170334        -2.359745
