19
Iteration:  1167
 C         0.325651         0.698581         0.293765
 C         1.553639         0.003088         0.103168
 C         2.125608        -0.829431         1.379209
 C         3.579893        -1.203390         1.055282
 C         4.131975        -0.326777        -0.102945
 O         3.948528         1.216612         0.002160
 C         2.684091         0.981417        -0.573613
 C         3.077972        -0.273839        -1.275478
 O         1.820480        -0.955558        -1.016834
 H         0.358699         1.440954         1.184083
 H        -0.145218         1.192895        -0.586334
 H        -0.510308        -0.000863         0.502029
 H         2.230595        -0.086979         2.208987
 H         1.325709        -1.603996         1.451800
 H         4.196279        -1.187728         1.935338
 H         3.665177        -2.327288         0.896091
 H         5.237382        -0.499693        -0.309007
 H         2.146492         1.885901        -0.979270
 H         3.462345        -0.356966        -2.300621
