19
Iteration:   648
 C         0.162598         0.467410         0.204623
 C         1.642174         0.151613         0.164929
 C         2.215485        -0.552263         1.400355
 C         3.596215        -1.192786         1.050416
 C         4.128470        -0.366149        -0.143091
 O         3.996939         1.089897         0.123567
 C         2.792289         0.998253        -0.594034
 C         3.066639        -0.320494        -1.277777
 O         1.676580        -0.881481        -1.029229
 H        -0.226434         0.987174         1.059234
 H        -0.109461         1.033592        -0.803727
 H        -0.451524        -0.511265         0.182245
 H         2.462967         0.150557         2.283434
 H         1.558628        -1.327988         1.805773
 H         4.406192        -1.367981         1.820850
 H         3.306049        -2.220511         0.549732
 H         5.195697        -0.557846        -0.339027
 H         2.456272         1.954463        -1.048789
 H         3.394499        -0.468219        -2.355624
