19
Iteration:  2165charge 0 multiplicity 1
 C         0.143043         0.532776         0.215172
 C         1.615823        -0.016262         0.162789
 C         2.272643        -0.545637         1.420711
 C         3.659778        -1.189453         1.019035
 C         4.078628        -0.423669        -0.254878
 O         3.939680         1.017054         0.203679
 C         2.723996         1.020965        -0.466061
 C         2.982829        -0.150962        -1.381849
 O         1.818856        -0.920785        -1.062030
 H         0.034272         1.287753         1.077128
 H        -0.190469         0.880811        -0.753211
 H        -0.559275        -0.303971         0.495534
 H         2.440068         0.390017         2.071057
 H         1.606289        -1.228354         1.930250
 H         4.449831        -1.118515         1.762210
 H         3.620422        -2.224250         0.781703
 H         5.079436        -0.666375        -0.590313
 H         2.515387         2.056368        -0.833644
 H         3.162313        -0.123879        -2.459156
