19
Iteration:  4217charge 0 multiplicity 1
 C         0.207396         0.547656         0.168963
 C         1.597044         0.033141         0.181841
 C         2.275494        -0.613418         1.512722
 C         3.580994        -1.237497         1.011452
 C         4.121989        -0.386749        -0.211675
 O         3.952583         1.084345         0.138363
 C         2.654455         1.004036        -0.528158
 C         3.049880        -0.274690        -1.313989
 O         1.817200        -0.861881        -1.077405
 H         0.030480         1.059612         1.109312
 H         0.116737         1.386984        -0.560955
 H        -0.548141        -0.111503        -0.149973
 H         2.495091         0.279149         2.089437
 H         1.578160        -1.229905         2.171371
 H         4.247501        -1.394362         1.828360
 H         3.326532        -2.339139         0.676898
 H         5.152797        -0.630606        -0.403775
 H         2.236336         1.993889        -0.853477
 H         3.218976        -0.217370        -2.410737
