19
Iteration:   504charge 0 multiplicity 1
 C         0.145829         0.552297         0.131415
 C         1.609516         0.048155         0.139809
 C         2.254385        -0.632173         1.419757
 C         3.727996        -1.083632         1.112528
 C         4.109246        -0.469773        -0.151223
 O         3.965803         1.053016         0.132249
 C         2.736571         1.018273        -0.534947
 C         3.010628        -0.309371        -1.302934
 O         1.727445        -0.827065        -1.057123
 H        -0.109338         1.162264         0.936062
 H         0.075443         1.023160        -0.899919
 H        -0.660119        -0.239998         0.223581
 H         2.010218         0.108311         2.248547
 H         1.727987        -1.536234         1.654576
 H         4.356875        -0.900879         1.997692
 H         3.716431        -2.248530         0.927720
 H         5.043860        -0.726734        -0.576720
 H         2.283122         1.959878        -0.853202
 H         3.350806        -0.471102        -2.306349
