19
Iteration:  2478
 C         0.158748         0.526190         0.296497
 C         1.653867         0.104157         0.154029
 C         2.142222        -0.688794         1.376802
 C         3.515279        -1.218147         0.920478
 C         4.154617        -0.296151        -0.200622
 O         3.996841         1.105330         0.196216
 C         2.724957         1.066524        -0.565574
 C         3.011595        -0.217596        -1.411868
 O         1.909187        -0.982080        -0.938209
 H        -0.011106         1.044370         1.341701
 H        -0.213022         1.210468        -0.477159
 H        -0.473163        -0.472809         0.308466
 H         2.319146        -0.013539         2.139586
 H         1.316121        -1.458562         1.487887
 H         4.188541        -1.235873         1.772238
 H         3.355723        -2.160341         0.598770
 H         5.195305        -0.744178        -0.523867
 H         2.354666         2.046694        -0.788883
 H         3.160637        -0.271939        -2.494259
