19
Iteration:  1636charge 0 multiplicity 1
 C         0.287400         0.601577         0.227486
 C         1.615521         0.009266         0.149570
 C         2.128137        -0.664922         1.410655
 C         3.571341        -1.210679         1.013594
 C         4.131959        -0.337720        -0.109938
 O         3.949323         1.183947         0.038143
 C         2.700178         0.948569        -0.538143
 C         3.076864        -0.255148        -1.280675
 O         1.813687        -0.936097        -1.029804
 H         0.205834         1.269654         1.075534
 H        -0.144105         1.118778        -0.716130
 H        -0.365961        -0.223003         0.337166
 H         2.239653         0.050536         2.149905
 H         1.362700        -1.386185         1.705168
 H         4.168663        -1.430211         1.891909
 H         3.310993        -2.257077         0.688057
 H         5.224887        -0.580882        -0.198996
 H         2.295611         1.985947        -0.913005
 H         3.375955        -0.373767        -2.300325
