19
Iteration:  2155
 C         0.200238         0.481040         0.179340
 C         1.622688         0.027474         0.094324
 C         2.309813        -0.546382         1.456552
 C         3.672798        -1.181386         0.973819
 C         4.096131        -0.387627        -0.233823
 O         3.958829         0.989196         0.200537
 C         2.640460         1.055197        -0.468072
 C         3.010102        -0.194127        -1.293407
 O         1.727833        -0.902418        -1.047360
 H         0.010470         1.363969         0.839237
 H         0.074093         1.019973        -0.766220
 H        -0.485458        -0.365481         0.253851
 H         2.723036         0.181273         2.209094
 H         1.825322        -1.230818         2.088701
 H         4.367357        -1.192562         1.801628
 H         3.392160        -2.131402         0.684365
 H         5.044416        -0.754201        -0.592516
 H         2.059592         2.020473        -0.775296
 H         3.388630        -0.125933        -2.370566
