19
Iteration:  1796
 C         0.140134         0.534673         0.193568
 C         1.604241        -0.039069         0.139960
 C         2.223234        -0.529352         1.439321
 C         3.616264        -1.155428         1.024640
 C         4.078919        -0.416679        -0.257796
 O         4.036810         1.025652         0.205458
 C         2.703616         1.005351        -0.505636
 C         3.016778        -0.179391        -1.349207
 O         1.813496        -0.930395        -1.067464
 H         0.062652         1.210362         1.092583
 H        -0.098102         1.209174        -0.673379
 H        -0.643247        -0.228949         0.097270
 H         2.420063         0.285836         2.235337
 H         1.598950        -1.345047         1.934395
 H         4.216479        -0.852271         1.928351
 H         3.633352        -2.237603         0.912938
 H         5.069851        -0.635058        -0.534368
 H         2.367677         1.936023        -0.660538
 H         3.188689        -0.285629        -2.434732
