19
Iteration:   197charge 0 multiplicity 1
 C         0.249147         0.555081         0.260889
 C         1.611699         0.021417         0.067759
 C         2.276186        -0.454921         1.345206
 C         3.535834        -1.200836         1.049482
 C         4.159975        -0.392195        -0.073955
 O         3.874131         1.072906         0.196924
 C         2.644955         0.930892        -0.614556
 C         3.117259        -0.309251        -1.258120
 O         1.774396        -0.904251        -1.109903
 H         0.163058         1.453654         0.942446
 H        -0.150945         0.870491        -0.759201
 H        -0.445859        -0.272894         0.578185
 H         2.592618         0.458931         1.917709
 H         1.703031        -1.116816         1.999550
 H         4.226237        -1.255596         1.851780
 H         3.337383        -2.261984         0.776909
 H         5.202128        -0.565759        -0.334044
 H         2.325962         1.885791        -1.142482
 H         3.541017        -0.470902        -2.218421
