19
Iteration:  1854
 C         0.196103         0.543361         0.275071
 C         1.583986         0.003900         0.164152
 C         2.251997        -0.567499         1.401973
 C         3.518035        -1.224453         0.981385
 C         4.110961        -0.366348        -0.136675
 O         3.969424         1.100561         0.167219
 C         2.689586         0.945451        -0.586553
 C         3.109607        -0.247590        -1.282868
 O         1.826571        -0.842864        -1.094063
 H         0.061750         1.388371         0.904898
 H        -0.326826         0.716727        -0.758927
 H        -0.375003        -0.195936         0.803648
 H         2.560706         0.261252         2.054548
 H         1.573475        -1.293859         2.018921
 H         4.204673        -1.597317         1.728161
 H         3.404321        -2.110451         0.323315
 H         5.199709        -0.560406        -0.356750
 H         2.189079         1.845301        -0.996184
 H         3.267954        -0.387097        -2.363141
