19
Iteration:  4878
 C         0.218927         0.498264         0.255777
 C         1.596376         0.034288         0.119029
 C         2.260790        -0.642944         1.335855
 C         3.626681        -1.220804         1.030485
 C         4.090505        -0.413236        -0.142398
 O         3.966968         1.070208         0.179781
 C         2.705330         1.053249        -0.531937
 C         3.020294        -0.226524        -1.349957
 O         1.752610        -0.828164        -1.031250
 H         0.091623         1.619614         0.385809
 H        -0.107536         0.323549        -0.814624
 H        -0.326598        -0.089077         1.034211
 H         2.265423         0.183535         2.097527
 H         1.611803        -1.355358         1.778360
 H         4.282751        -1.175886         1.931816
 H         3.622445        -2.239197         0.664397
 H         5.106684        -0.451734        -0.521106
 H         2.392602         1.981141        -0.862676
 H         3.335047        -0.427559        -2.344490
