19
Iteration:  2530
 C         0.205568         0.544986         0.173839
 C         1.585596        -0.029327         0.134746
 C         2.282540        -0.671698         1.451801
 C         3.768611        -1.213945         1.006965
 C         4.145452        -0.381686        -0.174042
 O         3.897449         1.029850         0.254228
 C         2.714212         1.035990        -0.519648
 C         2.990861        -0.186398        -1.363054
 O         1.669230        -0.817928        -1.093086
 H         0.170811         1.349389         0.861582
 H        -0.134227         0.998380        -0.779066
 H        -0.470287        -0.300143         0.518123
 H         2.389325         0.158965         2.153640
 H         1.615134        -1.441888         1.744629
 H         4.504812        -0.923627         1.789456
 H         3.706925        -2.329572         0.827276
 H         5.188258        -0.564676        -0.425544
 H         2.366409         2.033203        -0.992838
 H         3.291470        -0.319101        -2.473743
