19
Iteration:    15charge 0 multiplicity 1
 C         0.085648         0.612680         0.168317
 C         1.603908         0.110390         0.122039
 C         2.201537        -0.443333         1.346072
 C         3.580359        -1.201085         1.017896
 C         4.158857        -0.574566        -0.288655
 O         3.920736         1.023625         0.278472
 C         2.710543         0.973912        -0.526223
 C         3.066959        -0.218030        -1.411318
 O         1.905330        -0.961541        -0.900075
 H        -0.101890         1.482847         0.733282
 H        -0.225468         0.796115        -0.998677
 H        -0.599659        -0.281122         0.538569
 H         2.418460         0.314929         2.049117
 H         1.538884        -1.102363         1.807928
 H         4.363842        -0.669477         1.817410
 H         3.612245        -2.262162         1.146216
 H         5.257095        -0.793083        -0.516099
 H         2.429207         1.876600        -0.869287
 H         3.214955        -0.253883        -2.567478
