19
Iteration:  2704charge 0 multiplicity 1
 C         0.190150         0.534395         0.351054
 C         1.594766         0.081169         0.056158
 C         2.217227        -0.576470         1.285764
 C         3.566241        -1.180492         0.958169
 C         4.192141        -0.374927        -0.188822
 O         3.889120         1.012496         0.240076
 C         2.713444         1.027783        -0.563250
 C         3.061408        -0.197544        -1.344306
 O         1.827671        -0.951557        -1.007336
 H         0.373316         1.313279         1.030464
 H        -0.282333         0.995569        -0.532106
 H        -0.492805        -0.232992         0.725183
 H         2.224678         0.194266         2.166058
 H         1.617136        -1.312177         1.767900
 H         4.269356        -1.368010         1.762901
 H         3.330953        -2.226502         0.630466
 H         5.172468        -0.628862        -0.394924
 H         2.441547         2.085010        -0.835827
 H         3.467853        -0.335819        -2.376113
