19
Iteration:   533
 C         0.272225         0.661987         0.312865
 C         1.618929         0.010831         0.114426
 C         2.004589        -0.799018         1.329096
 C         3.522533        -1.073322         1.051711
 C         4.163343        -0.366397        -0.117273
 O         4.020103         1.207863        -0.006368
 C         2.714026         0.996119        -0.567012
 C         3.063163        -0.311058        -1.323649
 O         1.875406        -0.997578        -0.972549
 H         0.508027         1.274604         1.341482
 H        -0.018844         1.338433        -0.420313
 H        -0.483186        -0.092141         0.474778
 H         1.832526        -0.076394         2.124498
 H         1.348673        -1.690564         1.519167
 H         3.891935        -0.896640         2.038805
 H         3.712200        -2.088174         0.909576
 H         5.191124        -0.713759        -0.347489
 H         2.086584         1.836089        -0.883301
 H         3.320287        -0.457415        -2.377658
