19
Iteration:   305charge 0 multiplicity 1
 C         0.223116         0.472986         0.205861
 C         1.624128         0.027074         0.038402
 C         2.305130        -0.387584         1.431839
 C         3.573890        -1.179232         1.078945
 C         4.127174        -0.410767        -0.114037
 O         3.898672         1.029510         0.240577
 C         2.720830         0.957699        -0.516761
 C         3.058431        -0.276976        -1.391238
 O         1.743588        -0.933886        -1.132241
 H         0.039162         1.216952         1.075307
 H        -0.012529         1.034617        -0.689084
 H        -0.466163        -0.366225         0.330034
 H         2.611341         0.556604         1.930238
 H         1.532663        -0.813972         2.076420
 H         4.381865        -1.194023         1.830791
 H         3.204957        -2.249545         0.767831
 H         5.130131        -0.692658        -0.317686
 H         2.361877         1.969752        -0.804473
 H         3.362225        -0.209032        -2.404649
