19
Iteration:   767charge 0 multiplicity 1
 C         0.130022         0.442595         0.228139
 C         1.614968         0.058321         0.106909
 C         2.269155        -0.423752         1.350514
 C         3.540583        -1.211005         0.966685
 C         4.068724        -0.466016        -0.284100
 O         4.003928         0.922035         0.301694
 C         2.656491         1.100962        -0.522493
 C         3.014280        -0.143287        -1.389786
 O         1.916450        -0.941262        -0.990341
 H         0.074440         1.441394         0.632050
 H        -0.541197         0.555276        -0.759811
 H        -0.414083        -0.222984         0.992508
 H         2.461158         0.587049         1.831909
 H         1.586030        -1.015231         1.919855
 H         4.250463        -1.160211         1.797024
 H         3.389575        -2.334519         1.078181
 H         5.087477        -0.655257        -0.521142
 H         2.632424         2.207619        -0.627147
 H         3.237870        -0.170046        -2.468779
