19
Iteration:  1038charge 0 multiplicity 1
 C         0.208339         0.567502         0.222393
 C         1.610442         0.046036         0.104488
 C         2.294663        -0.583155         1.361786
 C         3.698568        -1.237356         1.045232
 C         4.210755        -0.334286        -0.114205
 O         3.911432         1.053723         0.191463
 C         2.656042         0.929164        -0.548805
 C         3.038101        -0.346478        -1.299380
 O         1.674292        -0.822421        -1.092236
 H        -0.134061         1.023066         1.213485
 H        -0.154074         1.292458        -0.633790
 H        -0.474678        -0.337842         0.081786
 H         2.388432         0.323889         2.044341
 H         1.619954        -1.130514         2.026893
 H         4.362631        -0.914145         1.966145
 H         3.470619        -2.267264         0.729954
 H         5.265548        -0.457347        -0.514185
 H         2.217892         1.860142        -1.132334
 H         3.477229        -0.365919        -2.301689
