19
Iteration:  3967
 C         0.248124         0.630815         0.151323
 C         1.664713         0.073439         0.179375
 C         2.244472        -0.604620         1.380857
 C         3.565549        -1.285571         0.989616
 C         4.111434        -0.387359        -0.227923
 O         3.898969         1.026569         0.208966
 C         2.678626         0.987054        -0.483634
 C         3.027852        -0.133775        -1.360430
 O         1.815322        -0.970480        -0.984970
 H         0.335134         1.469467         0.917133
 H        -0.176796         0.740437        -0.923282
 H        -0.552439         0.046047         0.633673
 H         2.447376         0.057833         2.213541
 H         1.397561        -1.368597         1.590136
 H         4.327208        -1.193637         1.751669
 H         3.487746        -2.398668         0.714025
 H         5.253178        -0.403421        -0.447999
 H         2.333324         1.999805        -0.786555
 H         3.245282         0.015797        -2.466278
