19
Iteration:  2485charge 0 multiplicity 1
 C         0.165791         0.503425         0.255450
 C         1.626708         0.095380         0.129817
 C         2.121681        -0.726916         1.404573
 C         3.491730        -1.178358         0.886573
 C         4.140006        -0.283945        -0.207161
 O         4.032846         1.128267         0.173890
 C         2.765442         0.991537        -0.510967
 C         2.993407        -0.216997        -1.395483
 O         1.908869        -0.971087        -0.897346
 H         0.186019         1.043649         1.146803
 H        -0.138769         1.361137        -0.446213
 H        -0.556792        -0.315645         0.285901
 H         2.198209        -0.093408         2.343580
 H         1.443997        -1.520931         1.548430
 H         4.210286        -1.116011         1.726350
 H         3.391957        -2.255320         0.487726
 H         5.108573        -0.431427        -0.587601
 H         2.433490         2.066639        -0.802811
 H         3.022884        -0.236031        -2.549238
