19
Iteration:  4846charge 0 multiplicity 1
 C         0.117950         0.578492         0.314676
 C         1.558202         0.033307         0.145340
 C         2.141952        -0.625792         1.391352
 C         3.523965        -1.238055         0.907537
 C         4.121610        -0.287161        -0.171173
 O         4.069802         1.061790         0.133351
 C         2.662577         1.042472        -0.568003
 C         3.077266        -0.230500        -1.385914
 O         1.932856        -0.955576        -0.916007
 H         0.116484         1.567319         0.884340
 H        -0.375304         0.597007        -0.725537
 H        -0.574325        -0.236611         0.605879
 H         2.349351         0.104671         2.227305
 H         1.534028        -1.463872         1.648743
 H         4.104837        -1.371160         1.805117
 H         3.308529        -2.062144         0.344843
 H         5.181947        -0.441335        -0.460514
 H         2.437756         2.026277        -0.744328
 H         3.455611        -0.464710        -2.339420
