19
Iteration:  2033
 C         0.190104         0.543715         0.216010
 C         1.653097         0.061179         0.136660
 C         2.151490        -0.693519         1.346667
 C         3.592030        -1.183742         0.939591
 C         4.075833        -0.300336        -0.199729
 O         4.022351         1.089596         0.164839
 C         2.688475         1.001540        -0.532251
 C         2.999686        -0.233048        -1.314612
 O         1.850869        -0.963713        -0.904027
 H         0.337807         1.489775         0.842737
 H        -0.239370         0.867100        -0.651488
 H        -0.526122        -0.197126         0.664903
 H         1.992836         0.022774         2.190279
 H         1.431372        -1.476664         1.477246
 H         4.296825        -0.909806         1.688462
 H         3.646271        -2.204352         0.613014
 H         5.044347        -0.611751        -0.574259
 H         2.650701         2.075674        -0.866673
 H         3.204914        -0.195178        -2.333492
