19
Iteration:  1434
 C         0.164364         0.587143         0.173363
 C         1.644632         0.077226         0.121445
 C         2.166970        -0.605198         1.327354
 C         3.631407        -1.142125         1.013315
 C         4.104570        -0.412740        -0.246179
 O         4.001257         1.021539         0.205510
 C         2.732303         1.050854        -0.555674
 C         3.068691        -0.256064        -1.312249
 O         1.769430        -0.955742        -0.918008
 H        -0.144648         1.071196         1.113981
 H        -0.144997         1.131628        -0.689890
 H        -0.548246        -0.280285         0.227049
 H         2.105420        -0.050915         2.242524
 H         1.578923        -1.479763         1.571971
 H         4.229371        -0.749046         1.895006
 H         3.768649        -2.155105         0.812407
 H         5.162230        -0.531047        -0.435419
 H         2.347653         2.100579        -0.885221
 H         3.179702        -0.474009        -2.379770
