19
Iteration:  2761charge 0 multiplicity 1
 C         0.133228         0.528324         0.145827
 C         1.581997         0.128471         0.157326
 C         2.159245        -0.692104         1.379473
 C         3.622338        -1.244166         0.879202
 C         4.116192        -0.340204        -0.217036
 O         4.059709         1.091964         0.164189
 C         2.719219         1.036615        -0.476266
 C         3.026996        -0.246189        -1.275626
 O         1.803798        -0.895357        -0.886680
 H         0.066164         1.359418         0.827048
 H        -0.080458         0.849372        -0.776544
 H        -0.598811        -0.246318         0.453129
 H         2.384442         0.082167         2.196341
 H         1.393620        -1.457643         1.574530
 H         4.412394        -1.171932         1.686171
 H         3.504638        -2.231929         0.378819
 H         5.085866        -0.713332        -0.485505
 H         2.332331         2.011350        -0.791395
 H         3.392287        -0.444930        -2.283614
