19
Iteration:  3798
 C         0.123994         0.512820         0.301302
 C         1.588799         0.031498         0.143798
 C         2.137713        -0.645229         1.327079
 C         3.506113        -1.197815         0.903864
 C         4.137145        -0.414515        -0.182391
 O         4.001601         1.060590         0.181688
 C         2.853622         1.050260        -0.597849
 C         3.078522        -0.178322        -1.270615
 O         1.840110        -0.805042        -0.987037
 H        -0.036658         1.336935         0.979311
 H        -0.452784         0.624084        -0.610533
 H        -0.373816        -0.361394         0.831733
 H         2.392566        -0.057532         2.272874
 H         1.483160        -1.410486         1.701379
 H         4.065464        -1.393615         1.799091
 H         3.437081        -2.214042         0.627385
 H         5.131356        -0.751676        -0.421818
 H         2.491915         1.908104        -1.166989
 H         3.305424        -0.436140        -2.302970
