19
Iteration:  2995charge 0 multiplicity 1
 C         0.170738         0.536489         0.142745
 C         1.636235         0.162351         0.185041
 C         2.204638        -0.605502         1.429213
 C         3.642536        -1.193419         0.958094
 C         4.170410        -0.413320        -0.300926
 O         3.944948         0.978126         0.284312
 C         2.737712         1.053535        -0.498188
 C         2.952738        -0.187313        -1.411814
 O         1.814261        -0.941590        -0.984288
 H        -0.226051         1.117718         1.108379
 H        -0.013419         1.196115        -0.671837
 H        -0.624655        -0.219881         0.145934
 H         2.384469         0.083794         2.219836
 H         1.476292        -1.468359         1.783221
 H         4.272031        -0.913511         1.902424
 H         3.709967        -2.318695         0.826414
 H         5.189922        -0.729570        -0.668960
 H         2.343952         2.044726        -0.696263
 H         3.179084        -0.384820        -2.470202
