19
Iteration:   446
 C         0.224329         0.454062         0.236003
 C         1.671911        -0.007511         0.139147
 C         2.167984        -0.496831         1.530420
 C         3.346980        -1.339577         0.962185
 C         4.126632        -0.301568        -0.045876
 O         4.005939         1.186287         0.035177
 C         2.725909         0.985143        -0.608960
 C         3.127291        -0.277015        -1.312413
 O         1.823824        -0.905592        -1.034801
 H         0.092178         1.396135         0.923091
 H        -0.182168         0.867680        -0.606839
 H        -0.434438        -0.346226         0.501121
 H         2.597769         0.375775         2.043325
 H         1.603745        -1.136720         2.244171
 H         4.099854        -1.553862         1.698207
 H         3.157782        -2.169913         0.303170
 H         5.171561        -0.551234        -0.234230
 H         2.357448         1.920330        -1.066977
 H         3.585182        -0.264900        -2.292498
