19
Iteration:  2287charge 0 multiplicity 1
 C         0.152450         0.404157         0.197145
 C         1.623696         0.139062         0.184977
 C         2.289335        -0.607640         1.425557
 C         3.587947        -1.304756         0.940030
 C         4.166644        -0.372266        -0.181800
 O         4.020165         1.113746         0.109340
 C         2.679750         1.066111        -0.501458
 C         3.010763        -0.232037        -1.261390
 O         1.714901        -0.840769        -0.986682
 H        -0.108335         1.166012         1.018956
 H         0.030849         0.843264        -0.887037
 H        -0.514703        -0.452384         0.219196
 H         2.372122         0.225242         2.168551
 H         1.640481        -1.367126         1.758831
 H         4.349391        -1.598386         1.637180
 H         3.154611        -2.168681         0.551313
 H         5.206399        -0.642444        -0.381111
 H         2.508371         2.054355        -1.071168
 H         3.488334        -0.305044        -2.282031
