19
Iteration:  4074
 C         0.163413         0.522223         0.178600
 C         1.559661         0.014818         0.134430
 C         2.275999        -0.562870         1.386334
 C         3.552732        -1.292930         0.939466
 C         4.083911        -0.368922        -0.131305
 O         4.033686         1.063726         0.097756
 C         2.650718         1.059495        -0.499829
 C         3.011869        -0.224642        -1.209562
 O         1.826015        -0.871991        -0.997819
 H        -0.016477         1.265637         0.998746
 H        -0.013936         1.222376        -0.682027
 H        -0.503996        -0.301903         0.114614
 H         2.656148        -0.011152         2.272830
 H         1.544077        -1.263015         1.928817
 H         4.361476        -1.387824         1.699181
 H         3.578442        -2.288049         0.347133
 H         5.133941        -0.676855        -0.318869
 H         2.504308         2.115631        -0.916047
 H         3.434712        -0.280361        -2.292316
