19
Iteration:  2228charge 0 multiplicity 1
 C         0.255566         0.621882         0.294660
 C         1.605126         0.004547         0.104939
 C         2.229168        -0.732776         1.335042
 C         3.637613        -1.223533         0.999076
 C         4.130003        -0.332608        -0.135955
 O         3.871197         1.097457         0.099770
 C         2.653606         0.956078        -0.527170
 C         3.106114        -0.253872        -1.319077
 O         1.762249        -0.849068        -1.003739
 H         0.216824         1.521315         0.978049
 H        -0.099057         1.067403        -0.578477
 H        -0.435238        -0.201795         0.655775
 H         2.184148         0.145366         2.020513
 H         1.457701        -1.408350         1.851235
 H         4.391299        -1.157906         1.821486
 H         3.689543        -2.321508         0.587630
 H         5.198185        -0.421254        -0.358708
 H         2.365606         1.861578        -0.930376
 H         3.501157        -0.309199        -2.277566
