19
Iteration:  4462charge 0 multiplicity 1
 C         0.195383         0.604554         0.255814
 C         1.621831         0.017542         0.143204
 C         2.121254        -0.689982         1.428576
 C         3.501935        -1.159796         0.940575
 C         4.117972        -0.282744        -0.132999
 O         4.027478         1.153874         0.071816
 C         2.696809         0.989743        -0.491628
 C         3.114267        -0.305630        -1.271177
 O         1.826229        -0.995009        -1.023523
 H         0.391812         1.506551         0.885270
 H         0.064850         1.110009        -0.687047
 H        -0.731442         0.206732         0.708347
 H         2.189148        -0.082772         2.430743
 H         1.502511        -1.575365         1.395193
 H         4.356706        -1.491602         1.680939
 H         3.329706        -2.040924         0.306420
 H         5.186523        -0.547118        -0.505241
 H         2.271812         1.992779        -0.745662
 H         3.364420        -0.477992        -2.381694
