19
Iteration:  4962charge 0 multiplicity 1
 C         0.153314         0.535026         0.211148
 C         1.569712         0.085535         0.184242
 C         2.229521        -0.652848         1.392919
 C         3.559491        -1.282819         0.927240
 C         4.195203        -0.302695        -0.105837
 O         3.997002         1.097853         0.051495
 C         2.680825         1.020853        -0.577035
 C         3.082951        -0.242563        -1.241071
 O         1.784502        -0.883722        -0.941509
 H        -0.101231         0.911391         1.178275
 H        -0.008379         1.314274        -0.454291
 H        -0.632527        -0.096369        -0.128152
 H         2.576689        -0.029167         2.274489
 H         1.610814        -1.525698         1.715268
 H         4.104383        -1.489860         1.882616
 H         3.608965        -2.227502         0.354514
 H         5.175857        -0.574795        -0.508386
 H         2.184651         2.000800        -0.933930
 H         3.342658        -0.402765        -2.310056
