19
Iteration:  2463
 C         0.195876         0.468846         0.338298
 C         1.597324         0.111713         0.088769
 C         2.256985        -0.571845         1.337007
 C         3.588859        -1.262711         0.955647
 C         4.111156        -0.415891        -0.150751
 O         3.905499         1.045277         0.155142
 C         2.668088         1.038933        -0.540146
 C         3.096085        -0.186686        -1.266102
 O         1.824950        -0.876160        -1.046453
 H         0.031167         1.035817         1.220458
 H        -0.188103         1.159686        -0.530958
 H        -0.381934        -0.473182         0.339374
 H         2.314626         0.186192         2.173556
 H         1.621943        -1.328834         1.696195
 H         4.290046        -1.263230         1.807102
 H         3.419766        -2.317787         0.515335
 H         5.144948        -0.403432        -0.432723
 H         2.381777         2.053286        -1.020782
 H         3.521420        -0.314306        -2.332458
