19
Iteration:  1313
 C         0.341696         0.643954         0.207056
 C         1.635134        -0.083555         0.092122
 C         2.210122        -0.718983         1.398549
 C         3.672496        -1.089138         1.120829
 C         4.088463        -0.388358        -0.136758
 O         3.933312         1.052525         0.086234
 C         2.596691         0.941606        -0.434899
 C         2.982207        -0.248609        -1.312012
 O         1.755419        -0.872036        -1.134857
 H         0.460039         1.394866         0.963622
 H         0.069696         1.163046        -0.767675
 H        -0.619728         0.155558         0.473023
 H         2.092255         0.080238         2.090509
 H         1.729858        -1.552150         1.871977
 H         4.438429        -0.580187         1.836106
 H         3.804901        -2.151868         1.101440
 H         5.066081        -0.698158        -0.502339
 H         2.149266         1.998463        -0.882917
 H         3.478884        -0.161324        -2.303109
