19
Iteration:  3627
 C         0.159495         0.528926         0.231616
 C         1.629857         0.130293         0.180530
 C         2.224315        -0.743493         1.389384
 C         3.524451        -1.360673         0.921443
 C         4.180650        -0.339493        -0.142841
 O         4.033136         1.109880         0.118992
 C         2.617707         1.023249        -0.536069
 C         3.100141        -0.227229        -1.240545
 O         1.779564        -0.768298        -0.994495
 H        -0.075357         1.389957         0.858838
 H        -0.115317         0.812860        -0.739622
 H        -0.372574        -0.359725         0.531304
 H         2.477446         0.086904         2.011236
 H         1.422337        -1.414673         1.792138
 H         4.119631        -1.625529         1.823756
 H         3.375636        -2.200551         0.178909
 H         5.194075        -0.605687        -0.370131
 H         2.274813         1.920571        -1.128396
 H         3.475935        -0.372478        -2.259995
