19
Iteration:   400charge 0 multiplicity 1
 C         0.201077         0.637896         0.234645
 C         1.600553         0.104375         0.119937
 C         2.120552        -0.629814         1.297571
 C         3.704143        -1.028709         1.069799
 C         4.159294        -0.459731        -0.259680
 O         3.898738         0.925621         0.268200
 C         2.720091         1.015527        -0.565490
 C         3.046543        -0.235022        -1.352789
 O         1.812908        -1.028534        -0.972413
 H        -0.023473         1.559687         0.938043
 H        -0.016665         1.111639        -0.685297
 H        -0.650274         0.056697         0.431359
 H         1.966248         0.012245         2.135538
 H         1.465602        -1.563770         1.461061
 H         4.223067        -0.415175         1.821503
 H         3.944613        -2.036915         1.154559
 H         5.276181        -0.496765        -0.542013
 H         2.546427         1.964850        -1.151333
 H         3.271015        -0.187551        -2.491801
