19
Iteration:  1934
 C         0.161390         0.472956         0.272049
 C         1.593699         0.039391         0.151250
 C         2.154447        -0.685924         1.347397
 C         3.536642        -1.198509         1.051551
 C         4.093453        -0.378890        -0.144348
 O         4.123701         1.144429         0.038368
 C         2.778539         1.053914        -0.522214
 C         3.052544        -0.239304        -1.284949
 O         1.745831        -0.887335        -1.029568
 H         0.128324         1.058334         1.235510
 H         0.045793         1.182581        -0.474408
 H        -0.678203        -0.278443         0.224542
 H         2.190785        -0.071502         2.257122
 H         1.468565        -1.484860         1.565224
 H         4.222851        -1.083460         1.874671
 H         3.576237        -2.168632         0.548797
 H         5.190259        -0.361003        -0.300981
 H         2.138813         1.991713        -0.922228
 H         3.376363        -0.432237        -2.274661
