19
Iteration:  4566
 C         0.206999         0.506729         0.236767
 C         1.645024         0.148038         0.181654
 C         2.140364        -0.528490         1.388942
 C         3.486867        -1.243818         0.864755
 C         4.218603        -0.372967        -0.180631
 O         3.990830         1.091775         0.171479
 C         2.748639         0.981923        -0.591758
 C         3.084334        -0.260030        -1.345366
 O         1.784030        -0.917693        -0.858483
 H        -0.145132         0.997182         1.175970
 H        -0.182862         1.215073        -0.602065
 H        -0.318954        -0.500075         0.083219
 H         2.282793        -0.091965         2.333127
 H         1.413069        -1.412447         1.556228
 H         4.215927        -1.309526         1.630920
 H         3.282084        -2.246532         0.371442
 H         5.265541        -0.382850        -0.377371
 H         2.291984         1.887707        -1.058331
 H         3.150168        -0.485352        -2.438264
