19
Iteration:  4689charge 0 multiplicity 1
 C         0.208258         0.600453         0.244788
 C         1.647489         0.026882         0.149707
 C         2.226860        -0.610779         1.379475
 C         3.523630        -1.240163         0.939407
 C         4.061386        -0.434482        -0.210336
 O         3.933187         1.107569         0.191298
 C         2.729580         1.021735        -0.535351
 C         3.012104        -0.200579        -1.301105
 O         1.887927        -0.955482        -1.020996
 H         0.168035         1.693449         0.506435
 H        -0.336357         0.602318        -0.725595
 H        -0.432598        -0.001471         1.009834
 H         2.484055         0.177459         2.096405
 H         1.557273        -1.361716         1.868410
 H         4.176952        -1.099513         1.821926
 H         3.443709        -2.294485         0.650161
 H         5.143597        -0.641704        -0.456532
 H         2.273165         1.977570        -0.810509
 H         3.490625        -0.217457        -2.357857
