19
Iteration:  2200charge 0 multiplicity 1
 C         0.205886         0.525344         0.373160
 C         1.609540         0.102082         0.108803
 C         2.191039        -0.714546         1.320308
 C         3.611014        -1.184831         0.994473
 C         4.100527        -0.353956        -0.106258
 O         3.980232         1.150960         0.107705
 C         2.780441         0.990219        -0.599379
 C         3.017757        -0.264711        -1.284136
 O         1.774334        -0.904684        -1.012016
 H         0.087119         1.365255         1.084519
 H        -0.413578         0.889253        -0.534171
 H        -0.263918        -0.338238         0.790671
 H         1.868026        -0.063467         2.137999
 H         1.527591        -1.541661         1.375823
 H         4.367371        -1.316751         1.760003
 H         3.405916        -2.070755         0.454035
 H         5.122689        -0.490818        -0.451278
 H         2.482307         1.999847        -1.164097
 H         3.567515        -0.337066        -2.339329
