19
Iteration:  1581charge 0 multiplicity 1
 C         0.173801         0.495937         0.214906
 C         1.596582         0.097843         0.127567
 C         2.196907        -0.573769         1.331718
 C         3.590489        -1.138858         1.002443
 C         4.091455        -0.418501        -0.215024
 O         3.987329         1.018845         0.194711
 C         2.718278         1.007587        -0.587112
 C         3.073215        -0.229367        -1.295322
 O         1.824604        -0.909568        -0.954854
 H        -0.052237         1.017179         1.153298
 H        -0.096443         1.257372        -0.595738
 H        -0.420294        -0.373323         0.183118
 H         2.328416         0.112932         2.092670
 H         1.396620        -1.218599         1.638045
 H         4.201527        -0.812588         1.786979
 H         3.439132        -2.226934         0.968066
 H         5.107951        -0.804457        -0.457778
 H         2.401791         2.037947        -0.934559
 H         3.433330        -0.402687        -2.293934
