19
Iteration:  3686
 C         0.145476         0.520823         0.280841
 C         1.591161         0.091919         0.124952
 C         2.241417        -0.620880         1.378456
 C         3.598644        -1.206604         1.034280
 C         4.134180        -0.445250        -0.225872
 O         3.959256         1.013984         0.195461
 C         2.754961         1.081497        -0.488460
 C         3.057376        -0.204254        -1.347779
 O         1.767162        -0.855200        -1.097243
 H         0.033307         0.883946         1.304534
 H        -0.073218         1.247706        -0.570474
 H        -0.622551        -0.234669         0.138498
 H         2.304286         0.070912         2.321632
 H         1.547986        -1.365199         1.859444
 H         4.382430        -1.355333         1.806961
 H         3.498864        -2.214582         0.597129
 H         5.213374        -0.758796        -0.441696
 H         2.437806         2.005912        -0.935044
 H         3.392013        -0.197423        -2.404542
