19
Iteration:   178charge 0 multiplicity 1
 C         0.125128         0.492597         0.211267
 C         1.635580         0.134178         0.074978
 C         2.143110        -0.471420         1.411647
 C         3.516590        -1.239112         0.988113
 C         4.098792        -0.377047        -0.180218
 O         3.948478         1.044380         0.174498
 C         2.809313         1.094238        -0.637524
 C         3.063081        -0.293152        -1.374294
 O         1.927923        -1.000786        -0.872047
 H         0.119238         1.196900         0.901071
 H        -0.537259         0.903826        -0.622918
 H        -0.476369        -0.350935         0.640334
 H         2.296788         0.300060         2.178892
 H         1.335339        -1.123619         1.725762
 H         4.194638        -1.303144         1.850594
 H         3.343312        -2.198117         0.679983
 H         5.198486        -0.632828        -0.315745
 H         2.469794         2.018120        -1.025036
 H         3.358000        -0.365415        -2.451010
