19
Iteration:  2185
 C         0.172144         0.493172         0.348070
 C         1.616993         0.078735         0.090938
 C         2.134082        -0.607895         1.306214
 C         3.561725        -1.157947         0.946529
 C         4.182703        -0.358332        -0.224011
 O         3.997322         1.026797         0.143728
 C         2.662754         1.055513        -0.533222
 C         3.086821        -0.234147        -1.328189
 O         1.822329        -0.900396        -0.977395
 H         0.224151         1.380694         1.141920
 H        -0.296355         0.853906        -0.551056
 H        -0.428197        -0.387624         0.807774
 H         2.368546        -0.055448         2.258600
 H         1.502199        -1.477440         1.635449
 H         4.163725        -1.002219         1.862514
 H         3.578991        -2.279004         0.886392
 H         5.201885        -0.695515        -0.420082
 H         2.287735         1.983538        -0.884875
 H         3.294696        -0.342217        -2.352955
