19
Iteration:  4998
 C         0.193586         0.480077         0.226830
 C         1.634970         0.049811         0.124988
 C         2.275840        -0.463842         1.422354
 C         3.607081        -1.142929         0.970087
 C         4.108110        -0.420116        -0.226371
 O         3.909442         0.899249         0.234976
 C         2.661279         1.033439        -0.535287
 C         3.007852        -0.177429        -1.401455
 O         1.790487        -0.893702        -1.040236
 H         0.020144         0.506353         1.325895
 H         0.310996         1.525750        -0.130776
 H        -0.401270        -0.304652        -0.208827
 H         2.509461         0.282214         2.290144
 H         1.727033        -1.191101         1.964642
 H         4.307810        -0.743625         1.828473
 H         3.465409        -2.289088         0.975339
 H         5.147958        -0.729026        -0.520267
 H         2.476031         2.017962        -0.920979
 H         3.382255        -0.249156        -2.370780
