19
Iteration:  3097
 C         0.241188         0.604465         0.166756
 C         1.570527         0.007020         0.133739
 C         2.291443        -0.648061         1.447060
 C         3.700617        -1.181916         1.019518
 C         4.153741        -0.387693        -0.220709
 O         3.918610         0.975544         0.232847
 C         2.641989         1.034049        -0.485638
 C         2.982762        -0.219507        -1.299950
 O         1.737738        -0.867191        -1.106394
 H         0.229571         1.530202         0.769206
 H         0.066161         1.139950        -0.893929
 H        -0.612588        -0.133619         0.498338
 H         2.319692         0.219056         2.237949
 H         1.842440        -1.542551         1.941377
 H         4.420636        -1.135550         1.848692
 H         3.540559        -2.259140         0.667022
 H         5.189684        -0.624656        -0.563837
 H         2.213003         2.057628        -0.938788
 H         3.313697        -0.262365        -2.389726
