19
Iteration:  3408
 C         0.227654         0.539672         0.344945
 C         1.594920         0.046066         0.091510
 C         2.213553        -0.694209         1.335060
 C         3.576700        -1.271986         1.017064
 C         4.126710        -0.342595        -0.137640
 O         3.915544         1.114671         0.146597
 C         2.704731         1.030579        -0.576887
 C         3.120712        -0.304732        -1.272412
 O         1.772889        -0.823458        -1.109219
 H         0.264753         1.354519         1.142497
 H        -0.176203         0.900628        -0.626669
 H        -0.637666         0.000448         0.783397
 H         2.312856         0.119969         2.102666
 H         1.574271        -1.480390         1.872875
 H         4.252642        -1.277535         1.924173
 H         3.363029        -2.361292         0.744642
 H         5.283654        -0.493183        -0.283309
 H         2.448498         1.927575        -1.254660
 H         3.533728        -0.154874        -2.302312
