19
Iteration:  3818
 C         0.160325         0.512609         0.250505
 C         1.638571         0.165921         0.116002
 C         2.150126        -0.621517         1.317876
 C         3.489852        -1.255653         0.947045
 C         4.180018        -0.326769        -0.226532
 O         4.066858         1.032979         0.135976
 C         2.670065         1.109043        -0.456580
 C         3.037027        -0.206459        -1.304742
 O         1.832397        -0.967807        -0.957258
 H         0.041913         1.285033         0.991814
 H        -0.189240         0.977265        -0.699260
 H        -0.382669        -0.412811         0.468576
 H         2.088492         0.073219         2.321817
 H         1.472569        -1.488119         1.600179
 H         4.383920        -1.470302         1.735084
 H         3.312385        -2.362699         0.666387
 H         5.233553        -0.810871        -0.354253
 H         2.383387         2.142733        -0.608801
 H         3.376664        -0.270722        -2.378253
