19
Iteration:  2459charge 0 multiplicity 1
 C         0.185340         0.437078         0.309203
 C         1.587306         0.108413         0.057460
 C         2.295037        -0.558909         1.354446
 C         3.601057        -1.261857         0.954122
 C         4.104930        -0.406642        -0.118970
 O         3.891768         1.046829         0.158991
 C         2.678987         1.000512        -0.529332
 C         3.103677        -0.212115        -1.251950
 O         1.796007        -0.825960        -1.072387
 H         0.167986         1.096741         1.219953
 H        -0.133117         1.124117        -0.410784
 H        -0.429612        -0.421849         0.399998
 H         2.438893         0.259819         2.134369
 H         1.591431        -1.384721         1.722919
 H         4.317795        -1.226801         1.798127
 H         3.376270        -2.312136         0.566056
 H         5.111461        -0.382727        -0.553909
 H         2.441497         1.921361        -0.993197
 H         3.450429        -0.256889        -2.243903
