19
Iteration:  4073charge 0 multiplicity 1
 C         0.156648         0.523948         0.182170
 C         1.560304         0.015425         0.132784
 C         2.275609        -0.560456         1.385814
 C         3.554541        -1.294759         0.946491
 C         4.088099        -0.370860        -0.133347
 O         4.030273         1.054186         0.092021
 C         2.642523         1.057372        -0.490225
 C         3.021370        -0.225571        -1.206616
 O         1.825778        -0.870179        -1.009220
 H        -0.038712         1.260404         0.982952
 H         0.018942         1.224891        -0.645314
 H        -0.513488        -0.294756         0.108717
 H         2.661740         0.016383         2.279507
 H         1.568234        -1.240489         1.921812
 H         4.390430        -1.356720         1.704869
 H         3.560572        -2.282317         0.374257
 H         5.132606        -0.644680        -0.331047
 H         2.517951         2.126189        -0.898229
 H         3.428958        -0.267023        -2.299139
