19
Iteration:  4023
 C         0.203841         0.530348         0.307795
 C         1.636678         0.125391         0.109015
 C         2.176513        -0.606728         1.258707
 C         3.600844        -1.231532         1.091140
 C         4.120145        -0.437726        -0.181221
 O         3.942021         1.017058         0.148946
 C         2.718843         1.067653        -0.593616
 C         3.064969        -0.237198        -1.298909
 O         1.793354        -0.837753        -1.017932
 H        -0.026167         0.871179         1.352329
 H        -0.236037         1.308912        -0.397703
 H        -0.298493        -0.459014         0.256886
 H         2.270940        -0.024129         2.144277
 H         1.445308        -1.458761         1.438520
 H         4.177144        -1.007761         1.960615
 H         3.539232        -2.287463         0.759210
 H         5.163658        -0.671083        -0.552094
 H         2.369517         2.047910        -0.839669
 H         3.583476        -0.479137        -2.209769
