19
Iteration:  2619charge 0 multiplicity 1
 C         0.145936         0.560995         0.144846
 C         1.605343         0.005534         0.136551
 C         2.268546        -0.586475         1.344094
 C         3.690826        -1.243495         0.980490
 C         4.125050        -0.369240        -0.255173
 O         3.930767         0.972491         0.280268
 C         2.689692         1.026967        -0.490310
 C         2.952220        -0.148153        -1.320898
 O         1.816813        -0.888782        -0.966200
 H        -0.001935         1.208578         1.028176
 H         0.013768         1.164540        -0.682932
 H        -0.685296        -0.219510         0.211775
 H         2.369248         0.216414         2.025990
 H         1.693904        -1.446016         1.691908
 H         4.548945        -0.921798         1.676657
 H         3.588308        -2.332526         0.858061
 H         5.110387        -0.476117        -0.794000
 H         2.531579         2.074066        -0.797141
 H         3.152851        -0.337649        -2.384695
