19
Iteration:   199charge 0 multiplicity 1
 C         0.261499         0.566629         0.260412
 C         1.612520         0.006860         0.081519
 C         2.286055        -0.453295         1.344955
 C         3.554486        -1.198125         1.033148
 C         4.152233        -0.383266        -0.055414
 O         3.863043         1.064170         0.183070
 C         2.655361         0.938862        -0.599322
 C         3.104066        -0.331316        -1.234440
 O         1.761085        -0.896000        -1.137565
 H         0.196515         1.362775         0.869002
 H        -0.177835         0.893576        -0.772620
 H        -0.480078        -0.239100         0.572798
 H         2.564697         0.472732         1.892281
 H         1.709687        -1.097076         1.988980
 H         4.221920        -1.242357         1.880146
 H         3.365363        -2.176214         0.791127
 H         5.247192        -0.582048        -0.274796
 H         2.265505         1.819901        -1.102641
 H         3.597601        -0.433822        -2.218153
