19
Iteration:  1486charge 0 multiplicity 1
 C         0.236485         0.569060         0.252778
 C         1.611043        -0.025010         0.087976
 C         2.163185        -0.615820         1.362375
 C         3.612693        -1.157042         1.076145
 C         4.146158        -0.397642        -0.129689
 O         3.950208         1.130028         0.154224
 C         2.709725         0.968610        -0.555805
 C         3.069202        -0.289185        -1.283058
 O         1.761985        -0.890609        -1.106844
 H         0.474003         1.443476         0.877598
 H        -0.227531         1.152957        -0.634135
 H        -0.544756         0.009822         0.825147
 H         2.145718         0.215705         2.217643
 H         1.653997        -1.553657         1.745386
 H         4.117258        -1.119089         2.056851
 H         3.623114        -2.217013         0.614401
 H         5.192014        -0.583155        -0.497732
 H         2.289460         1.796634        -1.050461
 H         3.315615        -0.385576        -2.318408
