19
Iteration:  4062
 C         0.111174         0.548907         0.207083
 C         1.605599         0.063922         0.157167
 C         2.270045        -0.568080         1.415828
 C         3.610046        -1.250116         1.002737
 C         4.169357        -0.415011        -0.184607
 O         3.975737         0.998645         0.114973
 C         2.663305         1.009995        -0.428840
 C         3.090650        -0.199583        -1.291373
 O         1.784299        -0.875696        -1.090368
 H        -0.141835         1.005787         1.183716
 H         0.040761         1.192224        -0.667980
 H        -0.650150        -0.192229         0.057970
 H         2.385572         0.453243         1.882715
 H         1.596215        -1.262003         1.950496
 H         4.309260        -1.230624         1.895445
 H         3.265071        -2.306743         0.815879
 H         5.173514        -0.564876        -0.581372
 H         2.244795         2.040934        -0.734403
 H         3.393662        -0.160121        -2.406273
