19
Iteration:  3319
 C         0.189477         0.513038         0.239368
 C         1.623606         0.061590         0.117050
 C         2.190170        -0.654407         1.368642
 C         3.576154        -1.301944         0.927975
 C         4.072384        -0.402352        -0.104838
 O         4.031347         1.117804         0.172602
 C         2.721435         1.061104        -0.576271
 C         3.067370        -0.223051        -1.287264
 O         1.771640        -0.834542        -0.973677
 H         0.026072         1.032155         1.125247
 H        -0.111455         0.942018        -0.681048
 H        -0.487055        -0.383324         0.265437
 H         2.373838         0.254514         2.028610
 H         1.556253        -1.367698         1.875217
 H         4.348652        -1.310945         1.712537
 H         3.368483        -2.275847         0.460850
 H         5.083297        -0.582142        -0.409315
 H         2.369959         1.990829        -1.131666
 H         3.355334        -0.247416        -2.312940
