19
Iteration:  4820
 C         0.277627         0.574178         0.219441
 C         1.609877         0.069394         0.094610
 C         2.274924        -0.563698         1.400638
 C         3.640434        -1.258478         0.996157
 C         4.127606        -0.402848        -0.201568
 O         3.926806         1.119856         0.199748
 C         2.616936         0.955081        -0.514653
 C         3.037258        -0.270089        -1.261086
 O         1.716244        -0.894206        -1.065892
 H         0.110957         1.143561         1.166989
 H        -0.099544         1.039162        -0.667093
 H        -0.328755        -0.383090         0.164424
 H         2.552992         0.188438         2.156305
 H         1.669899        -1.397017         1.809170
 H         4.306494        -1.138823         1.918453
 H         3.431325        -2.396939         0.746814
 H         5.203372        -0.377718        -0.481848
 H         2.416217         1.908499        -1.103873
 H         3.442446        -0.210006        -2.325964
