19
Iteration:  2002
 C         0.167953         0.518520         0.177398
 C         1.643214         0.034229         0.224619
 C         2.248606        -0.607225         1.452091
 C         3.556902        -1.318657         0.924022
 C         4.166265        -0.288770        -0.123116
 O         3.972428         1.122593         0.089197
 C         2.651178         0.962842        -0.517406
 C         3.066242        -0.235431        -1.322088
 O         1.790884        -0.878645        -1.002174
 H         0.025917         1.364413         0.876571
 H        -0.055578         0.855215        -0.803621
 H        -0.617658        -0.180271         0.488953
 H         2.426456         0.198347         2.190199
 H         1.545428        -1.257501         1.844740
 H         4.298161        -1.477828         1.730768
 H         3.279550        -2.249439         0.459996
 H         5.168486        -0.624541        -0.300897
 H         2.414931         2.007968        -0.955855
 H         3.315301        -0.097530        -2.380970
