19
Iteration:  2189
 C         0.177839         0.516864         0.364608
 C         1.631348         0.063783         0.095418
 C         2.133900        -0.628036         1.302267
 C         3.572259        -1.144041         0.968454
 C         4.145491        -0.357871        -0.207251
 O         3.981870         1.051974         0.125445
 C         2.687061         1.041734        -0.524339
 C         3.122641        -0.242367        -1.299130
 O         1.803218        -0.906186        -0.979926
 H         0.187444         1.269407         1.166684
 H        -0.401388         0.755817        -0.585104
 H        -0.345829        -0.310734         0.780654
 H         2.284765        -0.049025         2.230106
 H         1.457570        -1.440715         1.443810
 H         4.210066        -1.134244         1.855660
 H         3.644068        -2.166346         0.636716
 H         5.133078        -0.756497        -0.450861
 H         2.422414         2.072366        -1.034464
 H         3.218500        -0.342307        -2.445628
