19
Iteration:  1903charge 0 multiplicity 1
 C         0.195536         0.599742         0.174640
 C         1.622421         0.086110         0.176526
 C         2.193663        -0.707705         1.392972
 C         3.652883        -1.182526         0.983404
 C         4.149480        -0.390874        -0.227913
 O         3.937572         1.062927         0.160565
 C         2.686145         0.989538        -0.526273
 C         3.065492        -0.255604        -1.299319
 O         1.750557        -0.880058        -0.986710
 H         0.003347         1.360182         0.980485
 H         0.128371         1.120321        -0.706082
 H        -0.675497        -0.075254         0.300791
 H         2.160040        -0.191075         2.363010
 H         1.635369        -1.570831         1.436588
 H         4.355650        -1.004243         1.827329
 H         3.712805        -2.266682         0.819286
 H         5.195848        -0.318316        -0.396074
 H         2.346079         2.026194        -0.844077
 H         3.354744        -0.443878        -2.323773
