19
Iteration:  3525
 C         0.141129         0.476513         0.348461
 C         1.608520         0.144846         0.148753
 C         2.163575        -0.612013         1.296285
 C         3.510564        -1.257591         0.960867
 C         4.127542        -0.416242        -0.176512
 O         4.012051         1.129831         0.174623
 C         2.748755         1.042891        -0.642006
 C         3.093536        -0.207588        -1.342006
 O         1.870731        -0.893895        -0.937312
 H         0.161836         0.805149         1.344439
 H        -0.112708         1.110367        -0.507173
 H        -0.620094        -0.361322         0.346969
 H         2.108055        -0.013388         2.254221
 H         1.453549        -1.389314         1.462633
 H         4.022818        -1.572555         1.870974
 H         3.365409        -2.188903         0.384457
 H         5.062317        -0.697489        -0.536404
 H         2.288092         2.046997        -0.825776
 H         3.447238        -0.328406        -2.388518
