19
Iteration:  1940
 C         0.170668         0.474623         0.315122
 C         1.578122         0.009089         0.160503
 C         2.140159        -0.638024         1.358231
 C         3.526505        -1.188134         1.014638
 C         4.106710        -0.372773        -0.179666
 O         4.064484         1.129799         0.060155
 C         2.775817         1.101134        -0.529357
 C         3.096171        -0.265889        -1.295742
 O         1.783221        -0.886485        -1.031528
 H         0.152076         0.988465         1.261897
 H        -0.124947         1.256078        -0.537136
 H        -0.526991        -0.343534         0.195302
 H         2.167628        -0.037847         2.281695
 H         1.372262        -1.484181         1.581369
 H         4.296713        -1.027312         1.802782
 H         3.471332        -2.283787         0.763561
 H         5.143868        -0.785818        -0.342606
 H         2.363762         1.989587        -0.884588
 H         3.411283        -0.372422        -2.381609
