19
Iteration:  3377charge 0 multiplicity 1
 C         0.159884         0.556773         0.218902
 C         1.656464         0.082139         0.107535
 C         2.251260        -0.622622         1.315980
 C         3.612935        -1.199536         0.956327
 C         4.103550        -0.375993        -0.241041
 O         3.910537         1.003195         0.271439
 C         2.732990         1.110819        -0.419607
 C         3.035432        -0.316321        -1.361085
 O         1.773838        -0.934377        -1.018440
 H         0.003511         1.438041         0.935488
 H         0.072556         1.185677        -0.666908
 H        -0.447706        -0.311119         0.307665
 H         2.364165         0.167137         2.015506
 H         1.545119        -1.379238         1.802360
 H         4.373156        -1.040392         1.750769
 H         3.484096        -2.277840         1.026353
 H         5.206670        -0.330861        -0.626116
 H         2.548181         2.098823        -0.714944
 H         3.282753        -0.254291        -2.472815
