19
Iteration:  2105charge 0 multiplicity 1
 C         0.169615         0.506221         0.307700
 C         1.613531         0.048330         0.128612
 C         2.176590        -0.527192         1.334549
 C         3.561874        -1.213881         0.925730
 C         4.100108        -0.316720        -0.187937
 O         3.981249         1.056273         0.118290
 C         2.679410         1.035279        -0.527840
 C         3.074041        -0.257801        -1.291616
 O         1.901647        -0.923291        -0.959214
 H         0.111520         1.019740         1.291321
 H        -0.338519         1.265925        -0.446887
 H        -0.432276        -0.439801         0.387160
 H         2.264054        -0.037109         2.293237
 H         1.436701        -1.414615         1.500857
 H         4.251061        -1.152095         1.814651
 H         3.268205        -2.250702         0.499672
 H         5.145887        -0.730101        -0.371404
 H         2.359984         1.936187        -1.067097
 H         3.327948        -0.384432        -2.390102
