19
Iteration:  3598
 C         0.185300         0.619873         0.199686
 C         1.628911         0.029167         0.152246
 C         2.213616        -0.715227         1.365349
 C         3.570875        -1.209335         0.937314
 C         4.101713        -0.319786        -0.261258
 O         4.059607         1.026102         0.260311
 C         2.641705         1.062169        -0.501774
 C         2.963659        -0.164572        -1.327831
 O         1.852973        -0.943724        -0.959434
 H         0.236513         1.541080         0.828921
 H        -0.046812         0.817075        -0.877282
 H        -0.549283        -0.059569         0.597994
 H         2.162470        -0.004084         2.182835
 H         1.567938        -1.600694         1.591917
 H         4.249653        -1.302317         1.779087
 H         3.381622        -2.181472         0.507907
 H         5.152859        -0.654738        -0.580944
 H         2.400106         1.980527        -0.915387
 H         3.195181        -0.253834        -2.359415
