19
Iteration:   323
 C         0.209626         0.502120         0.255829
 C         1.589399         0.096147         0.056916
 C         2.221815        -0.428106         1.328774
 C         3.477505        -1.201932         0.958767
 C         4.123446        -0.401363        -0.182555
 O         3.888762         0.989741         0.282595
 C         2.727245         1.036767        -0.671790
 C         3.082549        -0.271338        -1.299688
 O         1.922389        -0.962980        -0.944481
 H         0.050388         1.166308         1.184142
 H        -0.368323         1.058151        -0.457092
 H        -0.436678        -0.335249         0.464812
 H         2.504908         0.427510         1.908163
 H         1.496970        -1.106714         1.888688
 H         4.176470        -1.166551         1.839606
 H         3.290836        -2.241501         0.703987
 H         5.227685        -0.527233        -0.472884
 H         2.557486         2.058820        -1.104828
 H         3.361421        -0.526304        -2.390181
