19
Iteration:  1018
 C         0.209971         0.609429         0.326589
 C         1.586446         0.008652         0.076366
 C         2.199868        -0.725791         1.333083
 C         3.688412        -1.154655         1.100349
 C         4.148692        -0.356194        -0.046541
 O         3.944146         1.130947         0.075338
 C         2.705760         1.004562        -0.584568
 C         3.043355        -0.298052        -1.328425
 O         1.749458        -0.925031        -1.092701
 H         0.194431         1.102042         1.271455
 H         0.134838         1.535619        -0.388890
 H        -0.729705        -0.022513         0.403310
 H         1.966001         0.019834         2.212907
 H         1.527788        -1.567112         1.511338
 H         4.152499        -0.921075         2.171944
 H         3.855202        -2.134680         0.692988
 H         5.155035        -0.628332        -0.342523
 H         2.399062         2.002518        -1.078500
 H         3.273511        -0.511211        -2.378056
