19
Iteration:  3253
 C         0.215792         0.596959         0.251433
 C         1.662099         0.066373         0.188977
 C         2.132908        -0.751950         1.399410
 C         3.608143        -1.287504         0.987698
 C         4.161330        -0.320219        -0.136776
 O         3.990888         1.100818         0.103331
 C         2.667337         1.039218        -0.522957
 C         3.017957        -0.234542        -1.300348
 O         1.787828        -0.850051        -1.041558
 H         0.154514         1.472445         0.822987
 H         0.053047         0.728622        -0.807962
 H        -0.474980        -0.255459         0.425219
 H         2.242242        -0.049577         2.263656
 H         1.344222        -1.428282         1.556178
 H         4.345323        -1.394432         1.767132
 H         3.580446        -2.169598         0.380887
 H         5.153423        -0.663599        -0.120282
 H         2.337130         1.974532        -1.043385
 H         3.235707        -0.294399        -2.312410
