19
Iteration:  2901charge 0 multiplicity 1
 C         0.170693         0.575962         0.226439
 C         1.608197         0.006610         0.111260
 C         2.236639        -0.626265         1.419537
 C         3.605424        -1.194855         0.998652
 C         4.148817        -0.433389        -0.209053
 O         3.978381         1.053864         0.267783
 C         2.672317         0.955704        -0.542340
 C         3.092085        -0.167523        -1.363849
 O         1.736824        -0.866508        -1.047501
 H         0.038261         1.428607         0.853409
 H        -0.203289         0.710685        -0.867363
 H        -0.497104        -0.180573         0.747267
 H         2.503074         0.200285         2.112031
 H         1.576434        -1.301082         1.814136
 H         4.280806        -1.036502         1.749155
 H         3.529579        -2.235065         0.747039
 H         5.118696        -0.576153        -0.614130
 H         2.391185         1.930885        -1.007947
 H         3.424067        -0.108546        -2.415162
