19
Iteration:  3193charge 0 multiplicity 1
 C         0.251499         0.502717         0.232735
 C         1.618801        -0.028670         0.092396
 C         2.300999        -0.548437         1.464957
 C         3.561702        -1.176814         0.961702
 C         4.118912        -0.480581        -0.191577
 O         3.922193         1.085142         0.259207
 C         2.662952         1.007228        -0.471474
 C         3.036971        -0.259290        -1.355152
 O         1.767153        -0.808294        -1.165857
 H         0.096947         1.126257         1.132064
 H         0.056773         1.214691        -0.558036
 H        -0.506981        -0.224883         0.393168
 H         2.517887         0.261022         2.170884
 H         1.550212        -1.133082         2.078704
 H         4.435133        -1.214098         1.664867
 H         3.306025        -2.272085         0.865261
 H         5.203910        -0.735390        -0.400339
 H         2.296750         1.952500        -0.872809
 H         3.405021        -0.370238        -2.448018
