19
Iteration:  4038charge 0 multiplicity 1
 C         0.243817         0.463557         0.281908
 C         1.644453         0.086651         0.037041
 C         2.207834        -0.570684         1.387791
 C         3.578992        -1.130258         0.991311
 C         4.065800        -0.413154        -0.168129
 O         3.977502         0.972304         0.287387
 C         2.768004         1.053055        -0.533131
 C         3.011679        -0.256750        -1.373813
 O         1.740047        -0.873221        -1.071578
 H         0.144195         0.773162         1.291621
 H         0.050698         1.190134        -0.429936
 H        -0.529209        -0.286907         0.108876
 H         2.279944         0.303343         2.078308
 H         1.539420        -1.323677         1.641740
 H         4.394162        -0.731659         1.683692
 H         3.578610        -2.206191         0.953968
 H         5.064342        -0.602436        -0.476328
 H         2.667485         2.052168        -0.993867
 H         3.096829        -0.318527        -2.458105
