19
Iteration:  4131charge 0 multiplicity 1
 C         0.169103         0.622006         0.300200
 C         1.519095        -0.059002         0.024630
 C         2.240899        -0.640006         1.348864
 C         3.641455        -1.262781         1.081703
 C         4.115326        -0.384187        -0.234603
 O         3.974749         1.109208         0.222128
 C         2.768712         1.062357        -0.480026
 C         3.028002        -0.239760        -1.319046
 O         1.762379        -0.912851        -1.109850
 H         0.277665         1.562418         0.804659
 H        -0.257651         0.597783        -0.731058
 H        -0.551511         0.044666         0.881818
 H         2.438374         0.242681         1.897254
 H         1.487227        -1.273170         1.949436
 H         4.310691        -1.092356         1.906811
 H         3.710061        -2.366422         0.866597
 H         5.152286        -0.613950        -0.492354
 H         2.511236         2.010690        -0.887222
 H         3.349954        -0.212750        -2.329258
