19
Iteration:  1088
 C         0.160108         0.377968         0.162084
 C         1.594544         0.097217         0.174711
 C         2.155525        -0.518470         1.460194
 C         3.458567        -1.233444         0.925310
 C         4.176113        -0.397477        -0.200024
 O         4.109441         1.102051         0.026273
 C         2.719320         1.033582        -0.477967
 C         3.043099        -0.209674        -1.261923
 O         1.829841        -0.885303        -0.932127
 H        -0.240018         1.211358         0.827446
 H        -0.128264         0.723403        -0.786803
 H        -0.354330        -0.439502         0.696732
 H         2.464466         0.229751         2.244203
 H         1.324433        -1.162950         1.916662
 H         4.183011        -1.399890         1.660553
 H         3.046473        -2.187378         0.417570
 H         5.201089        -0.736069        -0.423300
 H         2.295045         1.908810        -0.830428
 H         3.516638        -0.180230        -2.290999
