19
Iteration:  1008
 C         0.264940         0.649509         0.382383
 C         1.623059         0.019751         0.092060
 C         2.081158        -0.755150         1.319414
 C         3.592279        -1.103479         1.092905
 C         4.103765        -0.306851        -0.160180
 O         3.989401         1.114645         0.083469
 C         2.676084         1.005455        -0.602979
 C         3.062283        -0.313672        -1.316275
 O         1.835801        -0.957381        -1.035175
 H         0.363518         1.087240         1.310057
 H        -0.099717         1.371795        -0.406001
 H        -0.585954        -0.086666         0.314533
 H         1.890632        -0.330922         2.363300
 H         1.487062        -1.680032         1.297863
 H         4.369770        -0.814965         1.882326
 H         3.645105        -2.161512         0.952700
 H         5.087783        -0.565622        -0.486848
 H         2.261118         1.925314        -1.074145
 H         3.552653        -0.379575        -2.291557
