19
Iteration:  4931
 C         0.265831         0.540610         0.253303
 C         1.624661         0.070373         0.079061
 C         2.140117        -0.652628         1.383469
 C         3.539839        -1.193459         0.930392
 C         4.114992        -0.353985        -0.171953
 O         3.975571         1.081088         0.142766
 C         2.688842         1.050709        -0.523889
 C         3.039232        -0.232686        -1.325971
 O         1.830596        -0.958440        -0.982798
 H         0.382202         1.323030         1.052125
 H        -0.339011         0.895105        -0.601494
 H        -0.328104        -0.173262         0.855005
 H         2.258449         0.029985         2.304974
 H         1.409141        -1.404049         1.597175
 H         4.195474        -1.120827         1.896935
 H         3.761723        -2.270346         0.651517
 H         5.137871        -0.505022        -0.538663
 H         2.316870         2.083877        -0.606111
 H         3.360987        -0.341656        -2.342232
