19
Iteration:  2890
 C         0.159803         0.514821         0.177997
 C         1.568014         0.035108         0.227320
 C         2.234125        -0.647963         1.376831
 C         3.593313        -1.213818         0.934571
 C         4.127864        -0.375530        -0.164543
 O         4.007505         1.076903         0.119337
 C         2.688601         0.983266        -0.466932
 C         3.064591        -0.229066        -1.266930
 O         1.801383        -0.818494        -1.042088
 H         0.166900         1.482549         0.703308
 H        -0.138174         0.897202        -0.891775
 H        -0.677826        -0.135589         0.580486
 H         2.340165         0.104718         2.196096
 H         1.641519        -1.363701         1.826215
 H         4.230724        -1.267663         1.738213
 H         3.549039        -2.221978         0.559064
 H         5.069445        -0.813469        -0.379199
 H         2.214149         1.948800        -0.764506
 H         3.444818        -0.337207        -2.296169
