19
Iteration:  4595charge 0 multiplicity 1
 C         0.163293         0.620427         0.197087
 C         1.584885         0.038280         0.150592
 C         2.261596        -0.612461         1.378466
 C         3.637889        -1.269829         0.988768
 C         4.040007        -0.322008        -0.125484
 O         3.996296         1.038062         0.154741
 C         2.690269         1.024410        -0.551930
 C         3.053440        -0.266670        -1.270716
 O         1.779992        -0.919623        -1.026649
 H        -0.075807         1.051944         1.157915
 H         0.046491         1.442045        -0.474710
 H        -0.442336        -0.173335        -0.032062
 H         2.612277         0.211075         2.060412
 H         1.638736        -1.254868         1.908670
 H         4.455680        -1.221605         1.757349
 H         3.578317        -2.270013         0.549238
 H         5.011751        -0.397258        -0.602249
 H         2.180639         1.852232        -1.022422
 H         3.411258        -0.456538        -2.223445
