19
Iteration:  1754charge 0 multiplicity 1
 C         0.196515         0.609246         0.246764
 C         1.612310         0.100921         0.158392
 C         2.206126        -0.696468         1.343716
 C         3.584715        -1.189872         0.990937
 C         4.162145        -0.303208        -0.163619
 O         3.937737         1.140054         0.208312
 C         2.712605         0.988456        -0.609569
 C         3.058046        -0.365135        -1.345866
 O         1.791406        -0.920997        -0.950628
 H         0.033889         1.137209         1.182347
 H        -0.061408         1.355366        -0.576073
 H        -0.498022        -0.174101         0.108094
 H         2.130890        -0.013533         2.209796
 H         1.467620        -1.540150         1.585493
 H         4.430109        -1.188175         1.633955
 H         3.528680        -2.222212         0.707106
 H         5.129119        -0.546692        -0.540999
 H         2.363599         1.844996        -1.202350
 H         3.436356        -0.653401        -2.345609
