19
Iteration:  1507
 C         0.202588         0.612825         0.268073
 C         1.631649         0.132734         0.047614
 C         2.255664        -0.516001         1.344933
 C         3.635933        -1.213119         0.978197
 C         4.110775        -0.371893        -0.165405
 O         3.839856         0.950964         0.284020
 C         2.657573         1.003614        -0.573568
 C         3.104329        -0.246333        -1.372926
 O         1.833766        -0.979754        -1.014548
 H         0.097001         1.508117         0.874887
 H        -0.160958         0.816308        -0.850894
 H        -0.465993        -0.138853         0.708900
 H         2.267779         0.375830         2.112479
 H         1.636113        -1.302888         1.893847
 H         4.185663        -0.865350         1.825258
 H         3.601379        -2.382420         0.837257
 H         5.185538        -0.608054        -0.429502
 H         2.409212         1.933129        -0.885095
 H         3.299369        -0.475341        -2.394367
