19
Iteration:  3858
 C         0.192303         0.662791         0.168530
 C         1.578181         0.002896         0.127808
 C         2.350197        -0.614898         1.438733
 C         3.696503        -1.239040         1.000367
 C         4.188000        -0.417750        -0.190581
 O         3.883254         0.996141         0.273406
 C         2.644744         1.024707        -0.522465
 C         3.056034        -0.249700        -1.316307
 O         1.691350        -0.860107        -1.094912
 H        -0.141530         1.090016         1.152249
 H         0.077232         1.484595        -0.609294
 H        -0.500915        -0.136494        -0.074894
 H         2.503753         0.178282         2.101103
 H         1.641693        -1.401994         1.812519
 H         4.370453        -1.065399         1.849035
 H         3.488369        -2.281681         0.633352
 H         5.265471        -0.390407        -0.619822
 H         2.293207         2.020264        -0.866748
 H         3.348725        -0.478686        -2.375539
