19
Iteration:  1255charge 0 multiplicity 1
 C         0.148546         0.424401         0.262389
 C         1.660631         0.078922         0.126146
 C         2.246318        -0.541326         1.465343
 C         3.491702        -1.271584         0.961941
 C         4.123301        -0.365561        -0.115058
 O         4.002048         1.147444         0.118813
 C         2.748986         1.000385        -0.602818
 C         3.057811        -0.273288        -1.312101
 O         1.766838        -0.862136        -1.024400
 H        -0.042690         1.131005         1.098505
 H        -0.027028         0.992340        -0.704676
 H        -0.384836        -0.510315         0.421749
 H         2.465466         0.381388         2.064209
 H         1.514623        -1.210486         2.031036
 H         4.239677        -1.452068         1.725281
 H         3.124904        -2.238947         0.462018
 H         5.196974        -0.559333        -0.346408
 H         2.510602         1.992076        -1.080013
 H         3.389652        -0.481804        -2.285502
