19
Iteration:  4389
 C         0.120857         0.420178         0.252667
 C         1.607813         0.063679         0.165811
 C         2.186462        -0.549301         1.334744
 C         3.402647        -1.290518         1.000357
 C         4.167864        -0.372799        -0.116583
 O         4.140238         1.069915         0.012434
 C         2.693937         1.059392        -0.526380
 C         3.086245        -0.229586        -1.275395
 O         1.835585        -0.798507        -0.976187
 H        -0.276473         0.859761         1.225253
 H        -0.200785         1.051817        -0.603568
 H        -0.413370        -0.521042         0.289802
 H         2.461817         0.238499         2.024527
 H         1.506174        -1.258404         1.773669
 H         4.040127        -1.357634         1.882262
 H         3.293977        -2.298340         0.664969
 H         5.114957        -0.686052        -0.461229
 H         2.219476         2.034886        -0.776488
 H         3.476570        -0.384023        -2.298093
