19
Iteration:  1432charge 0 multiplicity 1
 C         0.158412         0.586438         0.175417
 C         1.641306         0.088205         0.121278
 C         2.184700        -0.606355         1.327896
 C         3.640131        -1.133356         1.009758
 C         4.104393        -0.403856        -0.229304
 O         3.988963         1.006185         0.208001
 C         2.738987         1.058865        -0.545634
 C         3.053423        -0.257503        -1.324969
 O         1.768327        -0.961363        -0.930251
 H        -0.093060         1.049727         1.104157
 H        -0.145832         1.146618        -0.759814
 H        -0.542864        -0.285826         0.190494
 H         2.125530         0.070431         2.263991
 H         1.566001        -1.476369         1.641060
 H         4.187951        -0.789697         1.894736
 H         3.812337        -2.209517         0.825889
 H         5.181058        -0.564230        -0.474077
 H         2.370346         2.021050        -0.862660
 H         3.184972        -0.443330        -2.352031
