19
Iteration:  1327
 C         0.261707         0.608953         0.188381
 C         1.611774        -0.070640         0.142702
 C         2.234302        -0.662928         1.385895
 C         3.714645        -1.125710         1.214072
 C         4.120892        -0.400767        -0.130467
 O         3.974285         1.062375         0.084011
 C         2.681596         0.954453        -0.474154
 C         2.996150        -0.197939        -1.352707
 O         1.655023        -0.879121        -1.170439
 H         0.350336         1.553438         0.855172
 H         0.021953         0.920398        -0.772266
 H        -0.408574        -0.223493         0.543413
 H         2.276376         0.156517         2.135070
 H         1.548670        -1.494316         1.595803
 H         4.310708        -0.958493         2.183628
 H         3.850085        -2.228751         1.051935
 H         5.179264        -0.522929        -0.340735
 H         2.144101         1.970038        -0.702811
 H         3.216819        -0.145819        -2.531257
