19
Iteration:  2820charge 0 multiplicity 1
 C         0.170665         0.525193         0.292666
 C         1.580297         0.017469         0.059858
 C         2.317895        -0.556221         1.307468
 C         3.657707        -1.217159         1.022829
 C         4.128516        -0.421191        -0.080263
 O         3.982573         1.082819         0.275597
 C         2.690918         0.948126        -0.519035
 C         2.970198        -0.263698        -1.351780
 O         1.730591        -0.854827        -1.172524
 H         0.170332         1.178171         1.175955
 H        -0.079852         1.335425        -0.320675
 H        -0.647308        -0.124910         0.198055
 H         2.454132         0.216237         2.002116
 H         1.506335        -1.148593         1.889291
 H         4.407730        -1.192274         1.905594
 H         3.645414        -2.315156         0.919728
 H         5.288417        -0.490209        -0.374578
 H         2.408815         1.833596        -1.094362
 H         3.254290        -0.107099        -2.407748
