19
Iteration:  4391charge 0 multiplicity 1
 C         0.115599         0.411756         0.256304
 C         1.609381         0.068161         0.163250
 C         2.191985        -0.537264         1.331879
 C         3.420671        -1.279764         0.991774
 C         4.167774        -0.369762        -0.133127
 O         4.133835         1.059889         0.036271
 C         2.722376         1.064947        -0.531731
 C         3.067625        -0.240400        -1.280124
 O         1.826331        -0.808798        -0.970026
 H        -0.260519         0.833997         1.167554
 H        -0.198447         1.051851        -0.581575
 H        -0.407461        -0.505216         0.277151
 H         2.436175         0.222808         1.989657
 H         1.449413        -1.227042         1.771921
 H         3.942455        -1.269414         1.856357
 H         3.328143        -2.305897         0.644248
 H         5.120324        -0.717993        -0.425932
 H         2.238719         2.006937        -0.762799
 H         3.469625        -0.286224        -2.250813
