19
Iteration:  4472charge 0 multiplicity 1
 C         0.240810         0.655538         0.269397
 C         1.595973         0.081324         0.227262
 C         2.076412        -0.733408         1.345694
 C         3.499061        -1.179793         0.886853
 C         4.168146        -0.313810        -0.133430
 O         3.961321         1.104537         0.043751
 C         2.695178         1.021090        -0.525163
 C         3.072623        -0.267564        -1.321615
 O         1.911845        -0.973946        -0.932377
 H         0.307593         1.541521         0.884937
 H        -0.227599         0.817032        -0.665070
 H        -0.459734        -0.103863         0.719867
 H         1.983988        -0.225192         2.376712
 H         1.402286        -1.575629         1.576991
 H         4.231171        -1.281593         1.770192
 H         3.340868        -2.163113         0.423783
 H         5.300804        -0.631913        -0.180468
 H         2.389925         1.965339        -1.015863
 H         3.601037        -0.362226        -2.335077
