19
Iteration:  3927
 C         0.180824         0.501274         0.232742
 C         1.578245         0.073941         0.064952
 C         2.220830        -0.584170         1.314261
 C         3.584685        -1.333732         1.000315
 C         4.200598        -0.374686        -0.132137
 O         4.049545         1.071459         0.188839
 C         2.715286         1.041887        -0.494925
 C         3.020831        -0.188424        -1.284671
 O         1.706196        -0.855542        -1.034250
 H         0.032248         1.380137         0.837214
 H        -0.215218         0.701843        -0.764135
 H        -0.432932        -0.296173         0.673592
 H         2.446725         0.200360         2.062161
 H         1.621286        -1.368540         1.741083
 H         4.087079        -1.211907         1.980816
 H         3.366176        -2.309947         0.604408
 H         5.161503        -0.753902        -0.525100
 H         2.434048         2.003064        -0.874493
 H         3.409064        -0.202229        -2.288031
