19
Iteration:   127
 C         0.197049         0.578047         0.095584
 C         1.552981        -0.009215         0.146111
 C         2.323714        -0.613203         1.474860
 C         3.703020        -1.082349         1.180629
 C         4.095144        -0.431020        -0.103468
 O         3.945634         0.992334         0.102223
 C         2.698147         1.065726        -0.572284
 C         2.997469        -0.315676        -1.328547
 O         1.722585        -0.866785        -1.114839
 H        -0.104953         1.348391         0.985278
 H         0.102386         1.206417        -0.793635
 H        -0.605404        -0.157421        -0.022187
 H         2.425090         0.277605         2.103248
 H         1.652151        -1.335518         2.003446
 H         4.321294        -0.957469         2.151631
 H         3.770662        -2.230033         1.025343
 H         5.094154        -0.768103        -0.422670
 H         2.373349         2.072933        -0.894090
 H         3.481390        -0.549578        -2.326779
