19
Iteration:  4111charge 0 multiplicity 1
 C         0.207691         0.562649         0.232369
 C         1.628912         0.128942         0.169478
 C         2.212903        -0.590867         1.385572
 C         3.577491        -1.229976         0.897267
 C         4.140722        -0.363267        -0.172983
 O         3.922470         0.990326         0.182549
 C         2.653610         1.017945        -0.545018
 C         3.064056        -0.218396        -1.329199
 O         1.863324        -0.891519        -0.975760
 H         0.195171         1.451285         0.874075
 H        -0.256024         0.719599        -0.808805
 H        -0.411099        -0.162337         0.862940
 H         2.231071         0.004826         2.273062
 H         1.432790        -1.405365         1.470404
 H         4.160974        -1.223118         1.808080
 H         3.466232        -2.237856         0.520446
 H         5.178918        -0.695388        -0.390421
 H         2.249851         1.898501        -0.934602
 H         3.374676        -0.385464        -2.304941
