19
Iteration:  4786
 C         0.129843         0.526921         0.265963
 C         1.542422         0.046522         0.050843
 C         2.208326        -0.569022         1.387974
 C         3.632778        -1.161855         1.015666
 C         4.149690        -0.421632        -0.220926
 O         4.002910         1.039427         0.143233
 C         2.717175         1.039353        -0.551762
 C         3.029775        -0.235682        -1.311830
 O         1.798930        -0.894958        -0.994550
 H        -0.057358         0.604876         1.321673
 H        -0.112587         1.461571        -0.208823
 H        -0.578422        -0.326187         0.094299
 H         2.358842         0.067519         2.236146
 H         1.601148        -1.445835         1.827747
 H         4.307997        -0.967510         1.915003
 H         3.570002        -2.341040         1.119041
 H         5.192732        -0.720788        -0.543071
 H         2.561762         2.106895        -1.048223
 H         3.421938        -0.217433        -2.402625
