19
Iteration:   349
 C         0.159832         0.550338         0.190670
 C         1.595624         0.090931         0.200213
 C         2.149566        -0.641680         1.372824
 C         3.523781        -1.223025         1.021767
 C         4.205502        -0.348400        -0.066047
 O         4.042299         1.171577         0.024105
 C         2.757641         0.982505        -0.609938
 C         3.059374        -0.294705        -1.271232
 O         1.801761        -0.921027        -0.970369
 H        -0.112248         1.318179         0.975086
 H        -0.324264         1.016570        -0.653605
 H        -0.527116        -0.256407         0.493786
 H         2.175286        -0.003377         2.295767
 H         1.489516        -1.499759         1.536946
 H         4.078655        -1.421192         1.949778
 H         3.339003        -2.237187         0.438536
 H         5.233060        -0.469023        -0.272451
 H         2.370218         1.877447        -1.104930
 H         3.381488        -0.492470        -2.251601
