19
Iteration:   627charge 0 multiplicity 1
 C         0.090718         0.383306         0.142767
 C         1.586664         0.143072         0.149129
 C         2.178273        -0.498817         1.387800
 C         3.436844        -1.217821         0.918749
 C         4.156282        -0.418763        -0.216686
 O         4.088763         1.037639         0.097436
 C         2.753034         1.118851        -0.578781
 C         3.043663        -0.227593        -1.282464
 O         1.891044        -0.883841        -0.757415
 H        -0.174311         1.166296         0.822079
 H        -0.255312         0.660809        -0.953831
 H        -0.434987        -0.608661         0.421397
 H         2.476577         0.142913         2.305133
 H         1.379411        -1.230190         1.655982
 H         4.205764        -1.425897         1.758153
 H         3.266559        -2.310686         0.525696
 H         5.184108        -0.758397        -0.570419
 H         2.480093         2.153517        -0.901702
 H         3.273785        -0.402434        -2.413231
