19
Iteration:  3505
 C         0.205827         0.548596         0.225727
 C         1.581920         0.073738         0.125974
 C         2.219176        -0.617364         1.397369
 C         3.504865        -1.214738         0.915020
 C         4.122024        -0.351801        -0.213368
 O         3.997558         1.018802         0.170544
 C         2.709599         1.060814        -0.434345
 C         3.042544        -0.211570        -1.311888
 O         1.864716        -0.932912        -1.009793
 H         0.041963         0.780231         1.278060
 H        -0.163111         1.107548        -0.620123
 H        -0.537682        -0.313900         0.177371
 H         2.447649         0.251748         2.113807
 H         1.450082        -1.269314         1.898507
 H         4.353126        -1.162159         1.664565
 H         3.263497        -2.315534         0.660208
 H         5.183012        -0.509260        -0.457202
 H         2.381858         2.102455        -0.975624
 H         3.173024        -0.271457        -2.436959
