19
Iteration:  3495
 C         0.179782         0.523200         0.168470
 C         1.616549         0.026596         0.183102
 C         2.252978        -0.558336         1.372275
 C         3.565547        -1.216192         0.953989
 C         4.142340        -0.403940        -0.251812
 O         3.980123         1.058789         0.223970
 C         2.664367         0.953910        -0.451728
 C         3.024388        -0.221716        -1.335744
 O         1.795139        -0.852488        -1.032632
 H         0.009912         1.166550         1.092121
 H         0.095906         1.262215        -0.627171
 H        -0.499901        -0.357339         0.088578
 H         2.538811         0.306348         2.043295
 H         1.666998        -1.283698         2.022577
 H         4.187364        -1.225154         1.897591
 H         3.498589        -2.315946         0.617545
 H         5.195412        -0.670934        -0.553500
 H         2.205567         2.043810        -0.560152
 H         3.360987        -0.242446        -2.418078
