19
Iteration:  2779
 C         0.165779         0.544831         0.300320
 C         1.627474         0.116533         0.131408
 C         2.173300        -0.642042         1.332445
 C         3.487367        -1.245253         0.967010
 C         4.159306        -0.396578        -0.204497
 O         3.972917         1.090195         0.155841
 C         2.768473         1.077513        -0.566101
 C         3.017137        -0.186288        -1.310834
 O         1.876192        -0.949154        -0.944963
 H        -0.077630         1.071722         1.248532
 H        -0.101535         1.084748        -0.800832
 H        -0.371473        -0.437569         0.488184
 H         2.150269        -0.119335         2.288631
 H         1.515040        -1.485227         1.456748
 H         4.106571        -1.184446         1.800300
 H         3.412347        -2.284030         0.655486
 H         5.235499        -0.661472        -0.487781
 H         2.581120         2.051934        -1.082175
 H         3.198654        -0.285460        -2.407892
