19
Iteration:  1828
 C         0.143697         0.422977         0.239525
 C         1.606361         0.137599         0.131736
 C         2.242870        -0.530601         1.314836
 C         3.506910        -1.327224         1.010698
 C         4.150054        -0.361439        -0.133026
 O         4.018860         1.103753         0.147224
 C         2.742267         1.070546        -0.620355
 C         3.051987        -0.251588        -1.308559
 O         1.813875        -0.837291        -0.929493
 H        -0.131792         1.234904         0.993227
 H        -0.352229         0.612604        -0.696700
 H        -0.310638        -0.541445         0.641126
 H         2.400321         0.045473         2.276301
 H         1.415003        -1.234263         1.477629
 H         4.179424        -1.619965         1.855904
 H         3.442785        -2.229623         0.430680
 H         5.103792        -0.636461        -0.532558
 H         2.453873         2.006568        -0.872016
 H         3.168344        -0.585536        -2.345688
