19
Iteration:  4356
 C         0.217872         0.570239         0.238706
 C         1.637409         0.040152         0.184828
 C         2.214676        -0.606251         1.366077
 C         3.500717        -1.219776         0.957690
 C         4.129633        -0.331355        -0.136374
 O         3.968010         1.077719         0.213430
 C         2.754221         0.998799        -0.600409
 C         3.043992        -0.255413        -1.344951
 O         1.788167        -0.919504        -1.019572
 H         0.165520         1.354867         1.053664
 H        -0.060419         1.019419        -0.726746
 H        -0.488715        -0.248728         0.315507
 H         2.363805         0.088949         2.198383
 H         1.622004        -1.395896         1.795010
 H         4.171308        -1.232390         1.812988
 H         3.327707        -2.222987         0.621955
 H         5.135967        -0.508869        -0.484217
 H         2.437085         2.011887        -0.949529
 H         3.261908        -0.526221        -2.396122
