19
Iteration:  4159
 C         0.231772         0.566666         0.291202
 C         1.595717         0.054158         0.062842
 C         2.274885        -0.674622         1.406532
 C         3.583684        -1.126627         1.083949
 C         4.125688        -0.381168        -0.169899
 O         3.917411         0.990278         0.139844
 C         2.710249         0.970047        -0.513495
 C         3.077466        -0.264524        -1.323225
 O         1.749919        -0.807410        -1.110764
 H         0.099309         1.480439         0.950273
 H        -0.135126         0.737368        -0.724828
 H        -0.317107        -0.286095         0.777941
 H         2.195475         0.122817         2.235416
 H         1.596364        -1.457971         1.682598
 H         4.336722        -1.117104         1.951219
 H         3.435585        -2.137936         0.666423
 H         5.177186        -0.695340        -0.257335
 H         2.393736         1.956133        -1.045640
 H         3.361513        -0.028416        -2.433181
