19
Iteration:  1600
 C         0.171787         0.624455         0.261723
 C         1.590640         0.070891         0.051996
 C         2.187407        -0.513531         1.319417
 C         3.673130        -1.119411         1.059338
 C         4.214143        -0.401377        -0.172227
 O         3.881902         0.971923         0.252271
 C         2.748821         1.025900        -0.529126
 C         3.033545        -0.363006        -1.382847
 O         1.773997        -0.945973        -1.045624
 H         0.007884         0.897139         1.351873
 H        -0.185440         1.278591        -0.491903
 H        -0.446206        -0.309658         0.206112
 H         2.160348         0.100842         2.254281
 H         1.567913        -1.411467         1.573585
 H         4.322162        -0.858745         1.984171
 H         3.694770        -2.175049         0.813378
 H         5.239149        -0.353946        -0.435572
 H         2.441209         2.050602        -1.058808
 H         3.284845        -0.298395        -2.476533
