19
Iteration:   609charge 0 multiplicity 1
 C         0.110264         0.449072         0.128522
 C         1.623162         0.116824         0.180255
 C         2.229962        -0.431389         1.478228
 C         3.503102        -1.228842         0.964561
 C         4.114947        -0.438319        -0.208959
 O         4.029147         1.016953         0.097631
 C         2.715269         1.030195        -0.420588
 C         3.010055        -0.175700        -1.356590
 O         1.896528        -0.972367        -0.974568
 H        -0.126540         1.462771         0.559989
 H        -0.209997         0.514609        -0.845946
 H        -0.368382        -0.388319         0.552206
 H         2.353995         0.467841         1.989604
 H         1.527517        -1.092860         2.031111
 H         4.201094        -1.289888         1.799420
 H         3.232903        -2.203471         0.755837
 H         5.161725        -0.711402        -0.483773
 H         2.434821         2.023167        -0.780253
 H         3.323561        -0.133583        -2.403520
