19
Iteration:  4977charge 0 multiplicity 1
 C         0.126749         0.576719         0.193522
 C         1.611754         0.059238         0.114963
 C         2.279083        -0.603732         1.365157
 C         3.691048        -1.234528         0.938251
 C         4.138830        -0.407130        -0.190875
 O         3.966477         1.109344         0.182784
 C         2.708876         1.015751        -0.469012
 C         2.986897        -0.304029        -1.285805
 O         1.742263        -0.890556        -0.989124
 H        -0.243722         0.593008         1.254446
 H        -0.059267         1.542109        -0.428996
 H        -0.384282        -0.331394        -0.214689
 H         2.338477         0.353098         1.967038
 H         1.515658        -1.157951         1.863421
 H         4.538307        -1.297949         1.714124
 H         3.388509        -2.286720         0.650450
 H         5.224191        -0.445045        -0.375770
 H         2.503059         1.935126        -0.913922
 H         3.335381        -0.404389        -2.279612
