19
Iteration:  3864charge 0 multiplicity 1
 C         0.176858         0.661020         0.203475
 C         1.594106         0.078307         0.125299
 C         2.330916        -0.607202         1.355547
 C         3.672453        -1.235683         0.980522
 C         4.185157        -0.400405        -0.131482
 O         3.877473         0.988621         0.243144
 C         2.678380         0.983726        -0.497597
 C         2.996893        -0.261275        -1.340712
 O         1.730677        -0.893631        -1.087129
 H        -0.086812         1.095517         1.159781
 H         0.073800         1.438827        -0.495085
 H        -0.459528        -0.233151        -0.060145
 H         2.465311         0.226975         2.154651
 H         1.714567        -1.350784         1.811980
 H         4.253444        -1.176281         1.935094
 H         3.740515        -2.269729         0.657461
 H         5.113972        -0.346791        -0.566958
 H         2.435480         2.022565        -0.775780
 H         3.411617        -0.326789        -2.330771
