19
Iteration:   163
 C         0.134150         0.455670         0.145540
 C         1.576905         0.154596         0.153797
 C         2.139442        -0.525423         1.373219
 C         3.455149        -1.100052         0.938268
 C         4.145054        -0.408403        -0.181076
 O         4.084291         1.022310         0.056524
 C         2.731085         1.046777        -0.555364
 C         3.063324        -0.249349        -1.252813
 O         1.905116        -0.961337        -0.821730
 H        -0.229082         1.221229         0.999454
 H        -0.084981         0.755107        -0.870241
 H        -0.348547        -0.504939         0.365708
 H         2.150249         0.101609         2.312148
 H         1.470531        -1.414821         1.595034
 H         4.104616        -1.093243         1.789408
 H         3.233110        -2.181302         0.555048
 H         5.118354        -0.737957        -0.448919
 H         2.569611         2.137943        -0.929166
 H         3.269855        -0.514192        -2.253125
