19
Iteration:  2655
 C         0.228223         0.512457         0.254443
 C         1.604121        -0.003025         0.138977
 C         2.180397        -0.621627         1.386437
 C         3.610942        -1.240886         1.008722
 C         4.117708        -0.336022        -0.167510
 O         4.035194         1.083064         0.120395
 C         2.737715         1.026004        -0.513542
 C         2.936170        -0.204485        -1.318914
 O         1.791867        -0.871197        -1.042247
 H         0.028844         1.122655         1.223714
 H         0.087400         1.171889        -0.664676
 H        -0.507645        -0.297763         0.048730
 H         2.078002         0.011199         2.177241
 H         1.534202        -1.458591         1.750189
 H         4.312837        -1.220305         1.876350
 H         3.544121        -2.270220         0.793408
 H         5.231172        -0.564937        -0.401444
 H         2.251720         1.920420        -0.848824
 H         3.242289        -0.163592        -2.343313
