19
Iteration:  2063charge 0 multiplicity 1
 C         0.157228         0.547088         0.278320
 C         1.612979         0.056904         0.086052
 C         2.291932        -0.671113         1.363320
 C         3.751706        -1.114786         1.110805
 C         4.100835        -0.437624        -0.138884
 O         3.884075         1.052457         0.164499
 C         2.675097         0.931829        -0.541821
 C         3.014479        -0.298259        -1.290009
 O         1.751209        -0.786456        -1.155483
 H         0.224216         1.438051         1.009657
 H        -0.078585         1.109063        -0.660388
 H        -0.537445        -0.262924         0.700911
 H         2.074711         0.183173         2.036408
 H         1.580813        -1.527560         1.702235
 H         4.510348        -0.988612         1.881501
 H         3.863047        -2.228016         0.864883
 H         5.087661        -0.481168        -0.648141
 H         2.447912         1.903062        -0.848944
 H         3.422526        -0.343025        -2.272795
