19
Iteration:  4891charge 0 multiplicity 1
 C         0.144492         0.552168         0.186930
 C         1.668450         0.056499         0.091164
 C         2.297883        -0.650142         1.452471
 C         3.713919        -1.249024         1.068095
 C         4.151608        -0.295310        -0.205427
 O         3.916960         0.992523         0.232068
 C         2.668073         1.044689        -0.520656
 C         3.036697        -0.303634        -1.322463
 O         1.684449        -0.798776        -1.154048
 H         0.153255         1.604131         0.583418
 H        -0.651383         0.362041        -0.637780
 H        -0.412054        -0.019617         0.959376
 H         2.559787         0.146931         2.140233
 H         1.621698        -1.433756         1.856782
 H         4.482371        -0.965471         1.752892
 H         3.564304        -2.274630         0.999920
 H         5.157655        -0.666566        -0.411964
 H         2.345486         2.016912        -0.838249
 H         3.395846        -0.503647        -2.332492
