19
Iteration:  2471
 C         0.173651         0.531918         0.339187
 C         1.649281         0.088002         0.160278
 C         2.179001        -0.612418         1.311074
 C         3.557848        -1.240517         0.954895
 C         4.150607        -0.369575        -0.206523
 O         3.948638         1.066374         0.183204
 C         2.671199         1.113817        -0.577936
 C         3.054278        -0.190723        -1.355461
 O         1.874800        -0.957222        -0.991239
 H        -0.118955         0.926396         1.308934
 H        -0.235674         1.019719        -0.520654
 H        -0.331885        -0.384193         0.291343
 H         2.265335         0.089086         2.232098
 H         1.427625        -1.379230         1.657646
 H         4.243195        -1.379363         1.822057
 H         3.455544        -2.333888         0.536621
 H         5.181950        -0.685482        -0.302821
 H         2.297467         2.088144        -0.912752
 H         3.430515        -0.321245        -2.364254
