19
Iteration:  3016charge 0 multiplicity 1
 C         0.159425         0.507608         0.190189
 C         1.593257         0.056298         0.063708
 C         2.280582        -0.518025         1.355427
 C         3.654525        -1.205856         0.966751
 C         4.085405        -0.428650        -0.203706
 O         3.940301         0.955232         0.199294
 C         2.706905         1.014739        -0.445164
 C         3.042574        -0.200636        -1.265880
 O         1.774260        -0.830192        -1.026662
 H         0.016356         1.127272         1.180923
 H        -0.030716         1.081350        -0.703945
 H        -0.590589        -0.269682         0.392432
 H         2.371341         0.220772         2.121426
 H         1.649272        -1.387475         1.799433
 H         4.439826        -1.048196         1.790062
 H         3.564939        -2.305310         0.829638
 H         5.089045        -0.679048        -0.590771
 H         2.393286         1.878467        -0.914573
 H         3.406186        -0.098095        -2.276255
