19
Iteration:   302charge 0 multiplicity 1
 C         0.236393         0.477610         0.193999
 C         1.614997         0.017489         0.046143
 C         2.309843        -0.403795         1.448320
 C         3.577467        -1.179089         1.098127
 C         4.122965        -0.407448        -0.111112
 O         3.919884         1.032433         0.213714
 C         2.690853         0.955276        -0.521402
 C         3.067298        -0.279505        -1.355441
 O         1.737742        -0.914888        -1.147131
 H        -0.042621         1.229757         1.035525
 H        -0.087222         0.984005        -0.665038
 H        -0.469854        -0.309719         0.270810
 H         2.594881         0.528384         1.900910
 H         1.496537        -0.866963         2.070011
 H         4.449795        -1.246155         1.813740
 H         3.234642        -2.198908         0.778250
 H         5.179083        -0.720912        -0.340996
 H         2.340548         2.009080        -0.733188
 H         3.359367        -0.234016        -2.454498
