19
Iteration:  4839charge 0 multiplicity 1
 C         0.106352         0.554153         0.275573
 C         1.612183        -0.010733         0.146152
 C         2.171628        -0.617339         1.351489
 C         3.581562        -1.211974         0.920988
 C         4.143563        -0.312357        -0.130899
 O         3.997730         1.083011         0.138842
 C         2.718394         1.041725        -0.593181
 C         3.025544        -0.230291        -1.345866
 O         1.882139        -0.928893        -0.932889
 H         0.087466         1.379136         0.949581
 H        -0.161109         0.959228        -0.712235
 H        -0.703882        -0.057450         0.682395
 H         2.425085         0.096841         2.112127
 H         1.481154        -1.410689         1.834941
 H         4.198001        -1.510455         1.773872
 H         3.378316        -2.224542         0.410912
 H         5.110039        -0.756470        -0.409246
 H         2.332184         2.154998        -0.725188
 H         3.485350        -0.425593        -2.375999
