19
Iteration:  2244charge 0 multiplicity 1
 C         0.229098         0.614960         0.247264
 C         1.599413        -0.004757         0.155753
 C         2.250475        -0.569298         1.383958
 C         3.632608        -1.152477         0.961859
 C         4.142687        -0.383313        -0.231839
 O         3.941285         1.050140         0.265996
 C         2.635474         1.014289        -0.507887
 C         2.982275        -0.221917        -1.313334
 O         1.828645        -1.017271        -1.094540
 H         0.393418         1.370415         1.050400
 H        -0.084258         1.150634        -0.756439
 H        -0.590739        -0.005702         0.572818
 H         2.378119         0.054353         2.285168
 H         1.641771        -1.428317         1.612197
 H         4.278383        -1.055980         1.821097
 H         3.534615        -2.152047         0.661544
 H         5.128357        -0.630567        -0.656603
 H         2.197606         2.043135        -0.884241
 H         3.156268        -0.220848        -2.469406
