19
Iteration:   853
 C         0.220891         0.653844         0.218553
 C         1.620388         0.001082         0.124535
 C         2.160930        -0.693806         1.304101
 C         3.734624        -1.041779         1.069130
 C         4.164167        -0.434164        -0.210956
 O         3.898631         0.968162         0.163580
 C         2.717226         0.986540        -0.456270
 C         2.978739        -0.242211        -1.393155
 O         1.755157        -0.903704        -1.004480
 H         0.077148         0.784291         1.259421
 H         0.086089         1.624083        -0.431817
 H        -0.524121        -0.151457        -0.075738
 H         1.995698        -0.029595         2.249801
 H         1.717481        -1.665946         1.586355
 H         4.287262        -0.251841         1.728145
 H         3.835506        -2.149897         1.171399
 H         5.229479        -0.600279        -0.368993
 H         2.440598         2.091482        -0.765363
 H         3.243220        -0.217137        -2.445844
