19
Iteration:   335
 C         0.081434         0.537797         0.271529
 C         1.631665         0.165691         0.018645
 C         2.174968        -0.510599         1.352847
 C         3.527929        -1.232468         0.952402
 C         4.131983        -0.366638        -0.123463
 O         3.936729         1.060206         0.128297
 C         2.707018         1.041028        -0.596124
 C         3.163350        -0.325782        -1.287281
 O         1.887981        -0.958339        -0.891611
 H         0.129630         1.248892         1.231880
 H        -0.202508         0.958813        -0.621599
 H        -0.384470        -0.381907         0.460470
 H         2.260474         0.128408         2.217789
 H         1.329114        -1.239351         1.635432
 H         4.287878        -1.414672         1.764179
 H         3.271591        -2.244641         0.491210
 H         5.186651        -0.734217        -0.316831
 H         2.411136         2.052441        -1.020555
 H         3.514160        -0.481470        -2.363215
