19
Iteration:  4992charge 0 multiplicity 1
 C         0.191810         0.479806         0.231167
 C         1.626978         0.056186         0.135233
 C         2.295936        -0.449785         1.386193
 C         3.624116        -1.164015         1.020833
 C         4.120093        -0.421753        -0.267670
 O         3.924617         0.972613         0.297514
 C         2.717973         1.002531        -0.556289
 C         3.006298        -0.211310        -1.365481
 O         1.752110        -0.912380        -1.042614
 H        -0.186175         0.681866         1.247862
 H         0.162075         1.516557        -0.232262
 H        -0.477053        -0.209079        -0.355742
 H         2.561753         0.208484         2.150058
 H         1.768306        -1.317511         1.920715
 H         4.241840        -0.946692         1.832583
 H         3.530226        -2.200898         0.816630
 H         5.043816        -0.714324        -0.773009
 H         2.287960         2.009592        -0.867854
 H         3.255461        -0.267846        -2.494912
