19
Iteration:  3133charge 0 multiplicity 1
 C         0.186413         0.552120         0.219081
 C         1.601332         0.054914         0.140661
 C         2.186476        -0.690416         1.396065
 C         3.558856        -1.185683         0.960272
 C         4.150234        -0.348361        -0.176725
 O         4.063738         1.018814         0.130719
 C         2.692593         1.101087        -0.524143
 C         2.975084        -0.175326        -1.284330
 O         1.816712        -0.926272        -0.980522
 H         0.048517         1.173788         1.132176
 H        -0.128376         0.997977        -0.786987
 H        -0.491243        -0.394125         0.260396
 H         2.186405         0.041858         2.251034
 H         1.569625        -1.554886         1.630284
 H         4.234098        -1.270907         1.799270
 H         3.425068        -2.198442         0.593899
 H         5.147961        -0.574739        -0.536389
 H         2.514212         2.147568        -0.887714
 H         3.215293        -0.319500        -2.300316
