19
Iteration:  4454
 C         0.215115         0.645585         0.218804
 C         1.597825        -0.058906         0.096777
 C         2.204892        -0.678915         1.424310
 C         3.579663        -1.205539         0.992038
 C         4.133984        -0.305197        -0.156639
 O         4.042004         1.174855         0.133006
 C         2.684942         0.984757        -0.526034
 C         3.035515        -0.270426        -1.265730
 O         1.773621        -0.964548        -1.048905
 H         0.381570         1.459253         1.021965
 H        -0.027509         1.191091        -0.764545
 H        -0.613568        -0.028182         0.500842
 H         2.173461         0.127113         2.225449
 H         1.557042        -1.518727         1.725725
 H         4.135056        -1.511969         1.955723
 H         3.345691        -2.161782         0.495329
 H         5.108651        -0.560478        -0.470526
 H         2.157526         1.913237        -0.804048
 H         3.329743        -0.383113        -2.308407
