19
Iteration:  3672charge 0 multiplicity 1
 C         0.166850         0.511059         0.328694
 C         1.624778         0.034996         0.076067
 C         2.219194        -0.478780         1.298397
 C         3.585166        -1.236363         0.941105
 C         4.105796        -0.430188        -0.184980
 O         3.986628         0.916273         0.258667
 C         2.674849         0.998501        -0.512765
 C         3.040705        -0.142545        -1.337559
 O         1.829545        -0.845825        -1.064667
 H         0.096096         0.953664         1.335452
 H        -0.135057         1.222827        -0.373914
 H        -0.403331        -0.354731         0.262931
 H         2.397979         0.321092         1.949754
 H         1.510973        -1.329309         1.630798
 H         4.206395        -0.793240         1.741427
 H         3.402616        -2.336643         1.025511
 H         5.121781        -0.609859        -0.563293
 H         2.434177         2.030775        -0.735348
 H         3.319575        -0.089772        -2.360142
