19
Iteration:  1812
 C         0.147610         0.446735         0.228233
 C         1.621210         0.148224         0.122535
 C         2.168545        -0.560295         1.378854
 C         3.552464        -1.139289         0.907635
 C         4.152082        -0.414800        -0.221432
 O         3.984828         0.983678         0.167940
 C         2.738367         1.058746        -0.487803
 C         3.046708        -0.230513        -1.320576
 O         1.830827        -0.906866        -0.930977
 H        -0.077622         1.085896         1.063117
 H        -0.167939         0.895877        -0.747408
 H        -0.345008        -0.490361         0.505781
 H         2.231764         0.208640         2.107058
 H         1.487496        -1.345387         1.755892
 H         4.293336        -1.039888         1.720045
 H         3.277944        -2.219307         0.727853
 H         5.245795        -0.708233        -0.465162
 H         2.447309         2.069413        -1.083002
 H         3.451399        -0.164023        -2.334937
