19
Iteration:    24charge 0 multiplicity 1
 C         0.085109         0.585209         0.114356
 C         1.569163         0.125177         0.097962
 C         2.226165        -0.452705         1.392692
 C         3.601624        -1.144336         1.018039
 C         4.149375        -0.557130        -0.340461
 O         3.930318         0.948099         0.297571
 C         2.713518         1.043324        -0.535481
 C         3.039415        -0.234473        -1.352720
 O         1.891869        -0.984337        -0.914152
 H         0.020909         1.482807         0.612745
 H        -0.337046         0.724750        -0.965683
 H        -0.565529        -0.169567         0.685950
 H         2.426625         0.342647         2.070968
 H         1.607071        -1.146834         1.868784
 H         4.430889        -0.754937         1.740373
 H         3.561466        -2.181660         1.176472
 H         5.227310        -0.784895        -0.536358
 H         2.498069         2.008971        -0.806338
 H         3.378848        -0.104528        -2.383575
