19
Iteration:  1744charge 0 multiplicity 1
 C         0.160107         0.605742         0.299333
 C         1.614558         0.123181         0.086350
 C         2.129322        -0.651920         1.322275
 C         3.600907        -1.175216         0.969693
 C         4.122590        -0.365613        -0.190244
 O         3.906747         1.103484         0.156448
 C         2.760101         1.016416        -0.639812
 C         3.092651        -0.276677        -1.281644
 O         1.867657        -0.987967        -0.898151
 H         0.106751         1.090366         1.247430
 H        -0.242134         1.294649        -0.537654
 H        -0.393583        -0.275107         0.391638
 H         2.229255        -0.143802         2.251070
 H         1.410163        -1.536527         1.423060
 H         4.241061        -1.228843         1.840771
 H         3.482977        -2.087284         0.400733
 H         5.180871        -0.595225        -0.319694
 H         2.635275         2.115690        -0.971500
 H         3.214091        -0.563676        -2.320787
