19
Iteration:  1430charge 0 multiplicity 1
 C         0.152671         0.581164         0.173676
 C         1.631453         0.100307         0.119872
 C         2.203652        -0.608438         1.335121
 C         3.647547        -1.123770         1.006202
 C         4.110704        -0.392209        -0.206895
 O         3.974003         0.992098         0.207668
 C         2.745306         1.060293        -0.532464
 C         3.030159        -0.259724        -1.334157
 O         1.770553        -0.963547        -0.944980
 H        -0.034908         1.070266         1.117510
 H        -0.129795         1.159890        -0.796927
 H        -0.513357        -0.291180         0.143404
 H         2.168460         0.176657         2.242477
 H         1.546873        -1.461345         1.695495
 H         4.174244        -0.844315         1.882422
 H         3.832679        -2.271741         0.858881
 H         5.181679        -0.612405        -0.524155
 H         2.398070         1.960923        -0.852620
 H         3.222941        -0.409724        -2.376369
