19
Iteration:  4008charge 0 multiplicity 1
 C         0.114979         0.572041         0.321986
 C         1.593397         0.132763         0.111005
 C         2.163518        -0.713903         1.371557
 C         3.580965        -1.242525         0.975711
 C         4.206559        -0.399561        -0.071945
 O         4.011660         1.144480         0.083123
 C         2.741097         0.988666        -0.554457
 C         3.073187        -0.277430        -1.327190
 O         1.801963        -0.848298        -1.030011
 H         0.045893         1.208262         1.270555
 H        -0.258288         1.236634        -0.523839
 H        -0.564301        -0.285422         0.267629
 H         2.005448        -0.076924         2.315920
 H         1.413831        -1.550098         1.574452
 H         4.253372        -1.443741         1.850039
 H         3.534210        -2.348164         0.710115
 H         5.280881        -0.628511        -0.200120
 H         2.421561         1.865346        -1.224747
 H         3.187446        -0.202669        -2.484682
