19
Iteration:   118
 C         0.176399         0.634212         0.151438
 C         1.666990         0.002591         0.094354
 C         2.253574        -0.554062         1.376253
 C         3.694554        -1.076298         1.187340
 C         4.077808        -0.425656        -0.161555
 O         3.903448         0.973652         0.203195
 C         2.643686         0.955149        -0.602338
 C         3.053818        -0.316156        -1.323682
 O         1.754077        -0.904944        -1.086876
 H         0.141824         1.272815         1.198795
 H         0.168117         1.322175        -0.642615
 H        -0.671683        -0.025126         0.119260
 H         2.367537         0.309178         2.078747
 H         1.683130        -1.363141         1.931024
 H         4.473153        -0.719357         1.856368
 H         3.727387        -2.243493         1.053224
 H         5.073872        -0.628790        -0.487395
 H         2.267173         1.988867        -0.989676
 H         3.457622        -0.430992        -2.316221
