19
Iteration:  1010
 C         0.256093         0.642154         0.374009
 C         1.618105         0.014885         0.084442
 C         2.100713        -0.745654         1.326970
 C         3.617157        -1.113418         1.103191
 C         4.110233        -0.309432        -0.135654
 O         3.985838         1.117988         0.081865
 C         2.675167         1.018021        -0.598909
 C         3.056692        -0.320458        -1.324084
 O         1.823893        -0.952465        -1.046174
 H         0.339380         1.099667         1.324008
 H        -0.070447         1.345072        -0.361372
 H        -0.617011        -0.014094         0.305189
 H         1.870827        -0.335355         2.314041
 H         1.465973        -1.655000         1.356795
 H         4.284929        -0.811529         1.874410
 H         3.660940        -2.175367         0.859129
 H         5.079541        -0.595578        -0.489713
 H         2.310437         1.882536        -1.068823
 H         3.528441        -0.393635        -2.321124
