19
Iteration:   798charge 0 multiplicity 1
 C         0.198521         0.490649         0.280583
 C         1.654443         0.033948         0.142351
 C         2.230011        -0.569224         1.366814
 C         3.549047        -1.282614         0.954047
 C         4.192764        -0.308962        -0.081257
 O         3.963124         1.085156         0.143257
 C         2.637199         1.006708        -0.619680
 C         3.114069        -0.294962        -1.293140
 O         1.745019        -0.826552        -1.021679
 H         0.127868         1.365103         0.984949
 H        -0.177880         0.875175        -0.783691
 H        -0.486073        -0.345912         0.601901
 H         2.338575         0.319819         2.090274
 H         1.614129        -1.324207         1.891138
 H         4.184604        -1.607282         1.894188
 H         3.074406        -2.163408         0.366031
 H         5.247464        -0.518285        -0.266033
 H         2.426268         2.027415        -1.089108
 H         3.425361        -0.441826        -2.304189
