19
Iteration:  4720charge 0 multiplicity 1
 C         0.180185         0.608264         0.183972
 C         1.645900         0.076087         0.155143
 C         2.306074        -0.509023         1.344882
 C         3.591350        -1.191629         0.938341
 C         4.185899        -0.393987        -0.153346
 O         3.864809         0.984154         0.201249
 C         2.683423         0.962257        -0.512335
 C         3.017807        -0.226804        -1.266623
 O         1.770701        -0.948168        -1.055057
 H         0.096828         1.370159         0.927538
 H        -0.196086         0.899843        -0.795076
 H        -0.432238        -0.192625         0.663356
 H         2.523771         0.227305         2.052749
 H         1.756915        -1.343168         1.850503
 H         4.242089        -1.146701         1.816187
 H         3.635519        -2.300311         0.679253
 H         5.187323        -0.486089        -0.510172
 H         2.377212         2.037721        -0.612423
 H         3.324228        -0.320375        -2.365964
