19
Iteration:  4239
 C         0.244124         0.501033         0.221530
 C         1.610212         0.060272         0.072218
 C         2.293844        -0.474329         1.330623
 C         3.660955        -1.239223         1.030323
 C         4.083357        -0.421443        -0.122886
 O         3.941893         0.998763         0.253849
 C         2.717825         1.012535        -0.552182
 C         2.977962        -0.187387        -1.352188
 O         1.714881        -0.916170        -1.050735
 H         0.067221         1.015284         1.150067
 H        -0.015003         1.226061        -0.592088
 H        -0.394237        -0.330391         0.006381
 H         2.449074         0.405350         1.920484
 H         1.478665        -1.057170         1.893328
 H         4.398320        -1.214721         1.815245
 H         3.491203        -2.378816         0.767622
 H         5.079956        -0.656598        -0.450524
 H         2.296915         2.029129        -0.672032
 H         3.592348        -0.153871        -2.290169
