19
Iteration:  2122
 C         0.115463         0.496509         0.232846
 C         1.586317         0.158835         0.111837
 C         2.236261        -0.650949         1.451064
 C         3.546085        -1.254074         0.891810
 C         4.181362        -0.386316        -0.195008
 O         3.995205         1.105678         0.157265
 C         2.699372         1.062547        -0.605853
 C         3.028421        -0.204208        -1.323779
 O         1.851188        -0.968841        -0.865257
 H        -0.123451         1.101731         1.131926
 H        -0.087557         1.048264        -0.667545
 H        -0.599272        -0.303808         0.099992
 H         2.522096         0.163898         2.150999
 H         1.609555        -1.376273         1.893147
 H         4.246716        -1.459924         1.691877
 H         3.333083        -2.168726         0.409696
 H         5.185576        -0.457777        -0.543651
 H         2.240468         2.079256        -0.900297
 H         3.430988        -0.256487        -2.360037
