19
Iteration:  2960
 C         0.141589         0.573035         0.278299
 C         1.632049         0.043566         0.188287
 C         2.149206        -0.688547         1.400605
 C         3.565302        -1.233446         0.966668
 C         4.202323        -0.320835        -0.053500
 O         4.030206         1.144735         0.051744
 C         2.713694         1.032825        -0.518370
 C         3.007965        -0.262171        -1.334327
 O         1.791450        -0.914160        -1.072406
 H         0.249700         1.399265         1.162457
 H        -0.043642         1.214283        -0.633932
 H        -0.571015        -0.329717         0.198560
 H         2.342153        -0.104223         2.308075
 H         1.444350        -1.542819         1.788461
 H         4.089087        -1.679380         1.910953
 H         3.438297        -2.139483         0.314831
 H         5.225560        -0.566648        -0.423380
 H         2.273351         1.981807        -0.802367
 H         3.478428        -0.422384        -2.300777
