19
Iteration:  2741
 C         0.207652         0.584730         0.117300
 C         1.597188         0.000810         0.217805
 C         2.314257        -0.643763         1.449630
 C         3.634281        -1.226572         0.998589
 C         4.197687        -0.409189        -0.179004
 O         3.931677         1.027565         0.152254
 C         2.691676         1.024521        -0.461998
 C         2.971699        -0.160407        -1.326472
 O         1.734907        -0.874253        -1.062247
 H        -0.002046         1.554453         0.623202
 H        -0.025911         0.715616        -0.889836
 H        -0.552424        -0.143785         0.420751
 H         2.437479         0.206904         2.170490
 H         1.743545        -1.585057         1.811563
 H         4.281183        -1.327295         1.979249
 H         3.278253        -2.215834         0.623915
 H         5.314243        -0.428962        -0.543288
 H         2.257315         1.981099        -0.729334
 H         3.245354        -0.026327        -2.368152
