19
Iteration:  4875charge 0 multiplicity 1
 C         0.216970         0.496125         0.264736
 C         1.609363         0.036607         0.133637
 C         2.228268        -0.625209         1.327198
 C         3.622451        -1.210144         1.006775
 C         4.101392        -0.439672        -0.142804
 O         3.960308         1.091783         0.169723
 C         2.724136         1.030423        -0.538854
 C         3.005129        -0.213083        -1.329640
 O         1.772021        -0.844322        -1.013298
 H         0.161284         1.583855         0.382741
 H        -0.140958         0.298564        -0.728015
 H        -0.375754        -0.119241         0.973130
 H         2.305628         0.179013         2.109655
 H         1.526797        -1.387599         1.691691
 H         4.241877        -1.146159         1.963700
 H         3.569901        -2.266807         0.539721
 H         5.118656        -0.533318        -0.527157
 H         2.392893         2.061123        -0.860012
 H         3.404896        -0.300037        -2.371482
