19
Iteration:  1294
 C         0.203742         0.676906         0.262807
 C         1.570527         0.015467         0.164595
 C         2.155522        -0.691714         1.343099
 C         3.651751        -1.121309         1.019377
 C         4.151707        -0.355057        -0.225122
 O         3.937647         1.073410         0.187612
 C         2.750748         1.046651        -0.570143
 C         3.051616        -0.294645        -1.363078
 O         1.810626        -1.008208        -0.987834
 H         0.132610         1.360789         1.169215
 H        -0.077015         1.176167        -0.629827
 H        -0.609362        -0.071860         0.500252
 H         2.029955        -0.184082         2.314576
 H         1.455144        -1.533775         1.515384
 H         4.227783        -0.718159         1.890873
 H         3.684044        -2.192287         0.812147
 H         5.193546        -0.548489        -0.489555
 H         2.283278         1.935709        -1.015735
 H         3.299638        -0.359701        -2.514882
