19
Iteration:  1009charge 0 multiplicity 1
 C         0.261002         0.646570         0.379708
 C         1.620827         0.017033         0.088099
 C         2.090405        -0.750414         1.322879
 C         3.604449        -1.108866         1.098235
 C         4.107307        -0.307568        -0.148323
 O         3.988045         1.116217         0.082763
 C         2.675221         1.012315        -0.601063
 C         3.059266        -0.317783        -1.320414
 O         1.830215        -0.954937        -1.040601
 H         0.352372         1.087620         1.306043
 H        -0.088018         1.356473        -0.384047
 H        -0.603766        -0.049645         0.306663
 H         1.879657        -0.335172         2.343173
 H         1.475877        -1.667463         1.327468
 H         4.330868        -0.812010         1.877071
 H         3.650639        -2.164412         0.907370
 H         5.077125        -0.579026        -0.488316
 H         2.285983         1.901030        -1.071281
 H         3.543768        -0.385154        -2.305085
