19
Iteration:  2660charge 0 multiplicity 1
 C         0.232886         0.489725         0.265556
 C         1.597956        -0.009678         0.124616
 C         2.172933        -0.659826         1.373303
 C         3.622548        -1.235696         1.003465
 C         4.108615        -0.367953        -0.123532
 O         4.031219         1.117730         0.091200
 C         2.748009         1.085915        -0.532704
 C         2.974527        -0.237251        -1.298906
 O         1.774525        -0.843954        -1.019075
 H         0.112439         0.990380         1.159171
 H         0.112457         1.129449        -0.644481
 H        -0.571427        -0.233766         0.165127
 H         2.103963         0.131627         2.305257
 H         1.465294        -1.438495         1.662492
 H         4.229823        -1.340422         1.898242
 H         3.554319        -2.326841         0.572130
 H         5.092333        -0.584435        -0.346616
 H         2.261203         2.022551        -0.947945
 H         3.278068        -0.281473        -2.392677
