19
Iteration:  4104charge 0 multiplicity 1
 C         0.246750         0.559601         0.259001
 C         1.632239         0.141199         0.165064
 C         2.165830        -0.562407         1.403153
 C         3.514923        -1.255938         0.907903
 C         4.187475        -0.316848        -0.257127
 O         3.910731         1.035574         0.179221
 C         2.685763         1.005691        -0.506288
 C         3.061316        -0.287859        -1.336965
 O         1.854145        -0.897952        -0.948300
 H         0.024698         1.438162         0.900959
 H        -0.032884         0.542928        -0.770786
 H        -0.420717        -0.278767         0.553686
 H         2.212694        -0.117957         2.461003
 H         1.408316        -1.297066         1.348609
 H         4.244349        -1.497542         1.766383
 H         3.445056        -2.247977         0.461578
 H         5.256112        -0.544475        -0.327771
 H         2.362355         2.023609        -0.932853
 H         3.348461        -0.391241        -2.440882
