19
Iteration:   141charge 0 multiplicity 1
 C         0.132693         0.499881         0.021548
 C         1.614492         0.047584         0.159793
 C         2.179977        -0.576353         1.496385
 C         3.655748        -1.194873         1.136859
 C         4.163121        -0.405339        -0.114543
 O         4.082176         1.107394         0.019288
 C         2.771526         0.964996        -0.519539
 C         2.953046        -0.263942        -1.267213
 O         1.688149        -0.856459        -1.022708
 H        -0.184215         1.194449         0.931699
 H         0.019108         0.963834        -0.931704
 H        -0.456776        -0.405282         0.097809
 H         2.290446         0.256078         2.250355
 H         1.576873        -1.397176         1.982432
 H         4.429819        -0.989196         1.837435
 H         3.576508        -2.328691         0.897850
 H         5.157256        -0.590755        -0.439306
 H         2.396235         1.994698        -0.921637
 H         3.239012        -0.346857        -2.284471
