19
Iteration:  3943
 C         0.128086         0.575890         0.165090
 C         1.626557         0.076664         0.116772
 C         2.275923        -0.572126         1.384441
 C         3.654090        -1.188216         0.927079
 C         4.093553        -0.436138        -0.250955
 O         3.911963         0.951559         0.311991
 C         2.719750         1.032229        -0.470771
 C         3.021740        -0.283749        -1.305878
 O         1.799664        -0.816508        -1.038566
 H         0.094397         1.485723         0.836571
 H        -0.268907         0.603690        -0.899794
 H        -0.641461        -0.070250         0.666878
 H         2.461079         0.331520         2.062511
 H         1.658624        -1.406871         1.868853
 H         4.492082        -1.147978         1.658820
 H         3.562589        -2.269633         0.590702
 H         5.186140        -0.555584        -0.432750
 H         2.440518         2.076188        -0.825342
 H         3.405908        -0.436328        -2.359443
