19
Iteration:   207
 C         0.258966         0.567293         0.201749
 C         1.612918        -0.027253         0.109147
 C         2.301788        -0.484534         1.373686
 C         3.648336        -1.162175         1.041953
 C         4.136257        -0.343211        -0.014551
 O         3.852416         1.049471         0.138628
 C         2.701773         0.935092        -0.535971
 C         3.063743        -0.397497        -1.214880
 O         1.718734        -0.882665        -1.220812
 H         0.368248         1.480892         1.009088
 H        -0.116398         1.032671        -0.744821
 H        -0.552736        -0.052768         0.661931
 H         2.429916         0.522534         1.876044
 H         1.571757        -1.025288         2.001445
 H         4.183888        -1.181888         1.956141
 H         3.449270        -2.234689         0.603982
 H         5.176501        -0.504815        -0.136000
 H         2.121467         1.810821        -0.996986
 H         3.557034        -0.348746        -2.130195
