19
Iteration:  1261
 C         0.173727         0.446746         0.273684
 C         1.658727         0.107110         0.149267
 C         2.190265        -0.549474         1.395448
 C         3.495994        -1.281224         0.935810
 C         4.167814        -0.360257        -0.111816
 O         3.971737         1.130733         0.097641
 C         2.734602         1.070256        -0.621243
 C         3.078758        -0.307901        -1.261556
 O         1.778120        -0.865970        -0.962167
 H        -0.084409         1.161729         1.091278
 H        -0.221202         0.922641        -0.604934
 H        -0.525415        -0.423731         0.318011
 H         2.435726         0.268169         2.116281
 H         1.622796        -1.391959         1.805092
 H         4.225665        -1.586903         1.722428
 H         3.335258        -2.290240         0.544097
 H         5.179606        -0.588132        -0.439348
 H         2.475901         1.941904        -1.205161
 H         3.576268        -0.517036        -2.300540
