19
Iteration:   164charge 0 multiplicity 1
 C         0.130181         0.460836         0.156251
 C         1.581496         0.154857         0.148185
 C         2.133204        -0.518664         1.372231
 C         3.450076        -1.107626         0.933065
 C         4.142368        -0.407032        -0.174480
 O         4.073919         1.017503         0.059428
 C         2.739638         1.053238        -0.563405
 C         3.054424        -0.246676        -1.253622
 O         1.918217        -0.967322        -0.821368
 H        -0.193185         1.188963         0.963580
 H        -0.115766         0.769986        -0.880725
 H        -0.346360        -0.512701         0.389872
 H         2.157092         0.098086         2.318579
 H         1.505148        -1.413854         1.596737
 H         4.125549        -1.098913         1.739714
 H         3.239501        -2.155538         0.572955
 H         5.136888        -0.720980        -0.442565
 H         2.595279         2.138735        -0.913003
 H         3.269734        -0.533196        -2.241751
