19
Iteration:   421
 C         0.197692         0.597657         0.245620
 C         1.648552         0.087733         0.035275
 C         2.209391        -0.600334         1.339697
 C         3.574876        -1.207627         1.039948
 C         4.142093        -0.368304        -0.093562
 O         3.921920         1.110229         0.159845
 C         2.672512         1.007408        -0.593178
 C         3.069370        -0.382305        -1.272831
 O         1.813707        -0.906842        -1.013130
 H         0.207798         1.426930         1.022370
 H        -0.331094         1.141910        -0.559008
 H        -0.486478        -0.189254         0.541465
 H         2.236050         0.092832         2.150531
 H         1.663573        -1.538161         1.645360
 H         4.198172        -1.203636         1.955050
 H         3.569721        -2.172081         0.641006
 H         5.242581        -0.531483        -0.390672
 H         2.351565         1.954751        -1.092709
 H         3.420231        -0.618030        -2.346034
