19
Iteration:  2170charge 0 multiplicity 1
 C         0.149813         0.521527         0.246689
 C         1.588026         0.017061         0.176246
 C         2.273202        -0.562562         1.412573
 C         3.614477        -1.200077         1.003692
 C         4.113756        -0.431152        -0.242523
 O         3.963681         1.025243         0.199713
 C         2.711794         1.004050        -0.496818
 C         2.963456        -0.156478        -1.387788
 O         1.848245        -0.911082        -1.045338
 H         0.105962         1.221158         1.027832
 H        -0.284335         0.876788        -0.724348
 H        -0.553802        -0.229465         0.556288
 H         2.243118         0.359945         1.920149
 H         1.517211        -1.269653         1.838183
 H         4.445822        -0.928171         1.715262
 H         3.604646        -2.335848         0.836828
 H         5.182425        -0.486890        -0.592901
 H         2.532652         2.064448        -0.771186
 H         3.258448        -0.185022        -2.492632
