19
Iteration:  2919charge 0 multiplicity 1
 C         0.238914         0.514755         0.280292
 C         1.607977         0.117731         0.066525
 C         2.242860        -0.520836         1.283740
 C         3.644569        -1.209684         1.006543
 C         4.109315        -0.373649        -0.174202
 O         3.857597         0.941318         0.259202
 C         2.731126         1.074347        -0.508843
 C         2.978192        -0.257846        -1.337039
 O         1.832016        -0.922546        -1.096320
 H         0.290871         1.383670         0.977470
 H        -0.257351         0.886516        -0.509715
 H        -0.339096        -0.124703         0.884637
 H         2.226175         0.212037         2.065227
 H         1.465080        -1.313663         1.640709
 H         4.381561        -1.038436         1.883369
 H         3.557305        -2.312111         0.819441
 H         5.217212        -0.569976        -0.445689
 H         2.485461         2.133957        -0.630071
 H         3.316919        -0.472467        -2.374248
