19
Iteration:   422
 C         0.202286         0.589773         0.244130
 C         1.652471         0.091122         0.038432
 C         2.213865        -0.600282         1.342047
 C         3.571093        -1.215595         1.043416
 C         4.143953        -0.370832        -0.083390
 O         3.924506         1.117597         0.149003
 C         2.667129         1.010664        -0.591656
 C         3.070273        -0.381203        -1.270509
 O         1.811129        -0.907071        -1.020559
 H         0.180649         1.438785         1.039113
 H        -0.294231         1.113907        -0.534702
 H        -0.481299        -0.165656         0.546751
 H         2.232262         0.109757         2.140119
 H         1.648804        -1.528519         1.666740
 H         4.173942        -1.248904         1.964842
 H         3.543227        -2.159904         0.592815
 H         5.240444        -0.522931        -0.368224
 H         2.337285         1.945808        -1.112752
 H         3.412452        -0.605781        -2.333529
