19
Iteration:  1114charge 0 multiplicity 1
 C         0.156389         0.511316         0.219741
 C         1.573605         0.053108         0.097432
 C         2.253205        -0.617277         1.384890
 C         3.678784        -1.215575         1.070859
 C         4.130144        -0.356755        -0.117133
 O         3.966070         1.047064         0.182830
 C         2.749553         1.024931        -0.618353
 C         2.996083        -0.287241        -1.340113
 O         1.738654        -0.842809        -1.034130
 H        -0.054433         1.427960         0.791447
 H        -0.126364         0.883168        -0.784378
 H        -0.458803        -0.136601         0.802721
 H         2.464263         0.151179         2.158352
 H         1.480537        -1.288961         1.756596
 H         4.429257        -1.153884         1.928614
 H         3.577984        -2.272095         0.718237
 H         5.190807        -0.568171        -0.447598
 H         2.356500         2.038537        -1.038681
 H         3.425549        -0.472281        -2.306035
