19
Iteration:  2430
 C         0.168052         0.461320         0.351999
 C         1.579466         0.051813         0.122380
 C         2.253790        -0.567102         1.363918
 C         3.635777        -1.208200         0.985562
 C         4.170475        -0.391665        -0.093303
 O         3.955175         1.027883         0.218606
 C         2.752300         1.008822        -0.493520
 C         3.020836        -0.157440        -1.383209
 O         1.709802        -0.882263        -1.185326
 H        -0.103265         1.258124         1.014807
 H        -0.052904         0.757618        -0.814239
 H        -0.445601        -0.462400         0.511425
 H         2.535109         0.357890         1.962926
 H         1.688125        -1.243359         1.913542
 H         4.305348        -1.166013         1.856773
 H         3.448469        -2.340977         0.842581
 H         5.160921        -0.403269        -0.509121
 H         2.444436         2.116422        -0.758883
 H         3.423968        -0.347837        -2.473325
