19
Iteration:  4641
 C         0.153262         0.524472         0.293649
 C         1.592980         0.129405         0.132586
 C         2.170744        -0.654960         1.349156
 C         3.591667        -1.190594         1.014084
 C         4.108505        -0.425774        -0.189272
 O         4.016133         1.046019         0.151599
 C         2.720784         1.081737        -0.586174
 C         3.096186        -0.251473        -1.291642
 O         1.763357        -0.906573        -1.034803
 H         0.070121         1.384502         0.932384
 H        -0.310536         0.941794        -0.607336
 H        -0.386636        -0.294609         0.697713
 H         2.279877        -0.020943         2.204078
 H         1.493977        -1.474521         1.591410
 H         4.269594        -0.752761         1.733315
 H         3.751069        -2.305043         0.842127
 H         5.091330        -0.711510        -0.376488
 H         2.694453         2.147370        -0.933071
 H         3.380155        -0.471962        -2.297078
