19
Iteration:   391charge 0 multiplicity 1
 C         0.191099         0.670700         0.173519
 C         1.635486         0.085681         0.124142
 C         2.167471        -0.655893         1.332000
 C         3.663931        -1.022301         1.146230
 C         4.165825        -0.467980        -0.244329
 O         3.931523         0.960717         0.188476
 C         2.656315         0.988159        -0.494913
 C         2.957213        -0.238182        -1.347360
 O         1.837201        -0.987891        -1.025309
 H         0.238893         1.637404         0.912133
 H         0.041487         1.029601        -0.775245
 H        -0.504956        -0.131550         0.271840
 H         2.045027        -0.081781         2.259774
 H         1.674829        -1.668730         1.393336
 H         4.298958        -0.483747         1.876705
 H         3.933576        -2.133476         1.377665
 H         5.186288        -0.765866        -0.568861
 H         2.375806         2.011070        -0.885856
 H         3.176107        -0.081887        -2.416107
