19
Iteration:  1637charge 0 multiplicity 1
 C         0.283035         0.602167         0.227015
 C         1.624918         0.016931         0.150406
 C         2.120943        -0.667734         1.409198
 C         3.564654        -1.207304         1.017640
 C         4.137730        -0.331985        -0.110137
 O         3.953757         1.182683         0.039183
 C         2.698711         0.944953        -0.541835
 C         3.076590        -0.242282        -1.288070
 O         1.812455        -0.943481        -1.021900
 H         0.209919         1.263214         1.070780
 H        -0.147413         1.091080        -0.731364
 H        -0.387940        -0.227433         0.348235
 H         2.201783         0.080579         2.148365
 H         1.379566        -1.405947         1.715622
 H         4.191784        -1.474110         1.852864
 H         3.298618        -2.268150         0.676091
 H         5.241756        -0.597103        -0.226497
 H         2.312205         1.954942        -0.875349
 H         3.380571        -0.389639        -2.302155
