19
Iteration:  3325
 C         0.201040         0.477319         0.204402
 C         1.603646         0.046242         0.179718
 C         2.161695        -0.653834         1.388688
 C         3.553372        -1.309418         0.891285
 C         4.106409        -0.381405        -0.091180
 O         4.077594         1.149287         0.151703
 C         2.716373         1.063916        -0.588509
 C         3.009304        -0.223904        -1.261247
 O         1.771981        -0.827541        -0.991885
 H         0.132786         1.134345         1.150606
 H        -0.002524         1.050706        -0.772829
 H        -0.381247        -0.435873         0.197934
 H         2.474283         0.142973         2.076664
 H         1.547004        -1.414539         1.909574
 H         4.231042        -1.296961         1.753253
 H         3.339924        -2.343005         0.552903
 H         5.124672        -0.610802        -0.463493
 H         2.296375         1.984578        -1.016788
 H         3.439179        -0.352333        -2.292851
