19
Iteration:  4919
 C         0.185576         0.579958         0.315710
 C         1.623443        -0.000370         0.109019
 C         2.229436        -0.634705         1.256399
 C         3.630578        -1.178448         1.027121
 C         4.132217        -0.353950        -0.209826
 O         3.946796         1.007264         0.217453
 C         2.657250         1.023347        -0.509759
 C         3.033830        -0.215778        -1.317840
 O         1.807236        -0.903367        -1.043593
 H         0.242852         1.594062         0.731780
 H        -0.220685         0.715158        -0.670360
 H        -0.508968        -0.118392         0.809186
 H         2.304901         0.220461         2.001361
 H         1.591409        -1.403952         1.688401
 H         4.360452        -0.887763         1.861500
 H         3.441932        -2.290458         0.878186
 H         5.158094        -0.663675        -0.434323
 H         2.337019         2.018019        -0.992580
 H         3.336965        -0.263143        -2.377459
