19
Iteration:  1762charge 0 multiplicity 1
 C         0.226603         0.615384         0.200726
 C         1.647258         0.046870         0.141169
 C         2.222269        -0.653623         1.388710
 C         3.650815        -1.208371         0.964987
 C         4.149030        -0.323793        -0.133258
 O         3.942107         1.109776         0.178438
 C         2.670876         0.984649        -0.588113
 C         3.036042        -0.348441        -1.301098
 O         1.731813        -0.888051        -1.007790
 H        -0.049230         1.101108         1.201795
 H         0.197550         1.317705        -0.577241
 H        -0.593764        -0.161055         0.059214
 H         2.264799         0.062078         2.311315
 H         1.608057        -1.534050         1.619362
 H         4.172962        -1.080654         1.976834
 H         3.608378        -2.277909         0.778494
 H         5.168510        -0.383299        -0.457208
 H         2.175859         1.734849        -1.073210
 H         3.445023        -0.449258        -2.320076
