19
Iteration:  3203charge 0 multiplicity 1
 C         0.188688         0.588762         0.193922
 C         1.613222         0.017710         0.185226
 C         2.253127        -0.564267         1.417919
 C         3.567054        -1.239055         0.996613
 C         4.123959        -0.402159        -0.247993
 O         3.935131         1.004885         0.229397
 C         2.712958         0.989354        -0.505751
 C         3.043650        -0.156491        -1.338649
 O         1.782250        -0.890417        -1.091564
 H         0.175415         1.155544         1.171246
 H        -0.139556         1.025533        -0.735178
 H        -0.387608        -0.327260         0.252813
 H         2.438884         0.306175         2.033941
 H         1.764390        -1.427561         1.979327
 H         4.217546        -0.947797         1.865380
 H         3.607275        -2.325296         0.755493
 H         5.213507        -0.684236        -0.400884
 H         2.291205         1.916950        -0.766636
 H         3.321624        -0.103991        -2.450950
