19
Iteration:  4909
 C         0.152612         0.580996         0.291649
 C         1.530999         0.050119         0.106342
 C         2.274343        -0.593264         1.336053
 C         3.723569        -1.160347         1.029898
 C         4.146110        -0.466441        -0.188112
 O         3.888833         1.014269         0.256159
 C         2.702398         0.954119        -0.505605
 C         3.055565        -0.204417        -1.339447
 O         1.765044        -0.857301        -1.131608
 H         0.084540         1.627866         0.690836
 H        -0.220206         0.537954        -0.752262
 H        -0.595527         0.055604         0.942010
 H         2.293596         0.254948         2.120727
 H         1.783304        -1.412867         1.793293
 H         4.518677        -1.061495         1.891285
 H         3.773776        -2.313702         0.897463
 H         5.196970        -0.544714        -0.556623
 H         2.374300         1.853674        -1.075507
 H         3.312998        -0.212873        -2.387267
