19
Iteration:  3452charge 0 multiplicity 1
 C         0.157604         0.582805         0.234840
 C         1.631429         0.040134         0.150403
 C         2.191058        -0.633140         1.337039
 C         3.600324        -1.210957         0.901633
 C         4.124778        -0.414388        -0.194993
 O         3.935420         1.063014         0.196316
 C         2.728789         1.025806        -0.489846
 C         3.077713        -0.195585        -1.333386
 O         1.810397        -0.890461        -0.949853
 H        -0.049566         1.444077         0.987732
 H        -0.046674         0.786540        -0.832294
 H        -0.518468        -0.279736         0.527338
 H         2.222175         0.058366         2.224062
 H         1.407766        -1.414859         1.642341
 H         4.410171        -1.154525         1.696744
 H         3.613457        -2.333599         0.671009
 H         5.243991        -0.612914        -0.535018
 H         2.306451         2.060690        -0.848365
 H         3.354338        -0.421117        -2.414201
