19
Iteration:  3755
 C         0.261912         0.587615         0.257059
 C         1.602092         0.012040         0.099688
 C         2.243422        -0.649128         1.341282
 C         3.585967        -1.178853         0.957623
 C         4.136227        -0.470876        -0.208533
 O         3.914535         0.997919         0.283957
 C         2.662018         1.020703        -0.487559
 C         3.068132        -0.179387        -1.334903
 O         1.775414        -0.872648        -1.095195
 H         0.344969         1.503506         0.847698
 H        -0.105174         0.807594        -0.758192
 H        -0.616128         0.045735         0.780839
 H         2.365855         0.254681         1.977484
 H         1.655246        -1.272149         1.957993
 H         4.240383        -1.074665         1.778047
 H         3.497753        -2.236736         0.888963
 H         5.151872        -0.530757        -0.474372
 H         2.462057         2.075623        -0.776552
 H         3.260738        -0.063059        -2.412642
