19
Iteration:  2559charge 0 multiplicity 1
 C         0.161981         0.503153         0.386433
 C         1.591110         0.087741         0.094753
 C         2.199301        -0.585462         1.292307
 C         3.562190        -1.238545         0.890514
 C         4.147699        -0.385838        -0.115238
 O         3.950252         1.068874         0.185027
 C         2.702698         1.043390        -0.510385
 C         3.067414        -0.172512        -1.351928
 O         1.881592        -0.962917        -1.065589
 H         0.172328         1.349112         1.091194
 H        -0.546287         0.782983        -0.448296
 H        -0.219654        -0.342588         0.863829
 H         2.278007         0.212792         2.168705
 H         1.327424        -1.178816         1.637098
 H         4.236305        -1.140343         1.754843
 H         3.348161        -2.353050         0.722646
 H         5.193043        -0.567334        -0.326483
 H         2.435572         2.045713        -0.875907
 H         3.298153        -0.300658        -2.414355
