19
Iteration:  2953
 C         0.166257         0.572387         0.284068
 C         1.592006         0.058700         0.188585
 C         2.112129        -0.674932         1.436411
 C         3.564064        -1.279324         0.952304
 C         4.223839        -0.328422        -0.080379
 O         3.995922         1.166642         0.083282
 C         2.762451         0.987067        -0.549648
 C         3.007715        -0.273296        -1.315939
 O         1.804880        -0.907940        -1.099343
 H         0.263990         1.205450         1.175954
 H        -0.189736         1.138933        -0.507401
 H        -0.515467        -0.210117         0.472637
 H         2.321078         0.003409         2.259283
 H         1.324205        -1.424706         1.679887
 H         4.265068        -1.426398         1.813111
 H         3.432645        -2.236909         0.395448
 H         5.305052        -0.397168        -0.354131
 H         2.495907         1.978739        -0.965404
 H         3.359909        -0.286948        -2.373430
