19
Iteration:   225
 C         0.248569         0.665210         0.210762
 C         1.563039        -0.048603         0.060023
 C         2.205183        -0.631811         1.427993
 C         3.659251        -1.158581         1.144050
 C         4.189406        -0.345101        -0.077647
 O         3.936163         1.108981         0.164053
 C         2.679975         0.955870        -0.596889
 C         3.042442        -0.290120        -1.368493
 O         1.737309        -0.943919        -1.111712
 H         0.214073         1.554923         0.935222
 H        -0.124988         1.029822        -0.719313
 H        -0.567818         0.021864         0.456318
 H         2.280347         0.225039         2.084787
 H         1.604580        -1.428277         1.935502
 H         4.343593        -1.038782         2.072091
 H         3.565710        -2.302575         1.061891
 H         5.213479        -0.626283        -0.441585
 H         2.174253         1.831833        -1.081862
 H         3.481100        -0.446012        -2.415342
