19
Iteration:  4187
 C         0.154104         0.553125         0.235620
 C         1.576162         0.202081         0.112024
 C         2.188944        -0.675774         1.273658
 C         3.524798        -1.219149         0.925617
 C         4.171312        -0.320365        -0.203489
 O         4.046499         1.088810         0.166791
 C         2.739704         1.100244        -0.538393
 C         2.991958        -0.341246        -1.281724
 O         1.845877        -0.994369        -0.879323
 H         0.028815         1.146092         1.102392
 H        -0.161320         1.191806        -0.599563
 H        -0.370122        -0.407271         0.328664
 H         2.309416        -0.058912         2.126915
 H         1.378173        -1.392968         1.558333
 H         4.131440        -1.169030         1.824510
 H         3.455113        -2.221442         0.521864
 H         5.209183        -0.635945        -0.350100
 H         2.410100         2.060303        -0.762427
 H         3.189187        -0.381965        -2.300490
