19
Iteration:  4053
 C         0.152653         0.548744         0.210897
 C         1.596623         0.006156         0.150033
 C         2.228424        -0.522014         1.394711
 C         3.618569        -1.156888         1.047269
 C         4.187060        -0.461000        -0.251041
 O         3.971785         1.022060         0.247776
 C         2.741004         0.945044        -0.491200
 C         2.990774        -0.182453        -1.405803
 O         1.769637        -0.862568        -1.096885
 H        -0.036654         0.972492         1.252371
 H        -0.242136         1.363736        -0.503835
 H        -0.423059        -0.357660         0.039810
 H         2.372565         0.307563         2.140862
 H         1.593927        -1.224445         2.070043
 H         4.259148        -1.208033         1.935418
 H         3.505734        -2.297520         0.808976
 H         5.236848        -0.784149        -0.490626
 H         2.255852         1.934847        -0.747110
 H         3.450502        -0.162990        -2.455475
