19
Iteration:  2829
 C         0.130615         0.580220         0.236233
 C         1.610715         0.064005         0.078928
 C         2.247591        -0.558202         1.340832
 C         3.701884        -1.254874         1.045180
 C         4.161058        -0.397209        -0.121926
 O         3.959307         1.015467         0.262239
 C         2.676474         1.001370        -0.545014
 C         3.021158        -0.228753        -1.384325
 O         1.729263        -0.896224        -1.096621
 H         0.132221         0.916758         1.288131
 H        -0.065664         1.254280        -0.482803
 H        -0.578735        -0.198421         0.373367
 H         2.462910         0.312642         1.993364
 H         1.610062        -1.404579         1.817287
 H         4.406232        -1.093142         1.977286
 H         3.542282        -2.285925         0.646307
 H         5.252110        -0.478579        -0.472075
 H         2.286054         1.976735        -0.837229
 H         3.354436        -0.162229        -2.427883
