19
Iteration:  2862charge 0 multiplicity 1
 C         0.200075         0.515115         0.154593
 C         1.649885         0.107646         0.206676
 C         2.158061        -0.657027         1.369401
 C         3.528121        -1.267844         0.929659
 C         4.130502        -0.326083        -0.204558
 O         4.045857         1.134108         0.168086
 C         2.735890         1.033485        -0.548461
 C         3.013043        -0.141882        -1.351597
 O         1.797186        -0.964807        -0.875516
 H         0.161688         1.299731         0.967340
 H        -0.125608         0.950440        -0.751914
 H        -0.370274        -0.391378         0.259701
 H         2.195393        -0.079877         2.314827
 H         1.398314        -1.548157         1.582078
 H         4.262931        -1.440111         1.868690
 H         3.459771        -2.277799         0.435347
 H         5.065106        -0.890663        -0.434468
 H         2.248947         1.948976        -0.847833
 H         3.249399        -0.205671        -2.410758
