19
Iteration:   604charge 0 multiplicity 1
 C         0.148767         0.483492         0.121364
 C         1.609630         0.061937         0.173149
 C         2.241594        -0.441183         1.486956
 C         3.511628        -1.179024         0.989386
 C         4.121072        -0.424443        -0.192239
 O         4.030452         1.009380         0.134405
 C         2.702760         1.015483        -0.463085
 C         2.981410        -0.194361        -1.337413
 O         1.869579        -0.957902        -1.025487
 H        -0.067571         1.404283         0.624032
 H        -0.242604         0.466998        -0.990375
 H        -0.385289        -0.376618         0.665177
 H         2.524623         0.517517         2.103031
 H         1.555353        -1.057142         2.067910
 H         4.299681        -1.314802         1.788207
 H         3.288427        -2.299008         0.690721
 H         5.126197        -0.719916        -0.512110
 H         2.380496         2.024464        -0.782133
 H         3.338079        -0.107021        -2.406454
