19
Iteration:  1979charge 0 multiplicity 1
 C         0.182696         0.490886         0.238193
 C         1.634320         0.050136         0.055613
 C         2.335458        -0.486490         1.368658
 C         3.609165        -1.258755         0.931814
 C         4.138292        -0.417219        -0.168080
 O         3.893795         1.055071         0.275055
 C         2.679174         1.039546        -0.545725
 C         3.030788        -0.257984        -1.295399
 O         1.748017        -0.890226        -1.042869
 H        -0.029399         1.176865         1.106294
 H        -0.115096         0.952457        -0.616000
 H        -0.530329        -0.365202         0.381108
 H         2.460309         0.433605         1.953001
 H         1.737468        -1.164208         1.900064
 H         4.291759        -1.149898         1.770903
 H         3.422484        -2.320219         0.740031
 H         5.125098        -0.591915        -0.609128
 H         2.661992         2.182375        -0.764511
 H         3.400116        -0.486829        -2.270101
