19
Iteration:  4553charge 0 multiplicity 1
 C         0.188375         0.491408         0.249353
 C         1.641307         0.130860         0.137431
 C         2.197359        -0.609520         1.396654
 C         3.507420        -1.180346         0.946910
 C         4.071908        -0.336328        -0.197005
 O         4.022443         1.036452         0.147177
 C         2.716288         1.062065        -0.551719
 C         3.030625        -0.284057        -1.313700
 O         1.857738        -0.917234        -0.954332
 H         0.029533         1.071398         1.187599
 H        -0.131108         1.097345        -0.639982
 H        -0.335284        -0.437947         0.312628
 H         2.326084         0.234622         2.061622
 H         1.437268        -1.287757         1.739800
 H         4.171491        -1.394320         1.801523
 H         3.272402        -2.175924         0.497643
 H         4.936577        -0.806171        -0.495724
 H         2.534198         2.059702        -0.967757
 H         3.457325        -0.327651        -2.268468
