19
Iteration:  4306charge 0 multiplicity 1
 C         0.253757         0.619131         0.220026
 C         1.665348         0.016178         0.170743
 C         2.136316        -0.705245         1.380141
 C         3.581144        -1.168469         1.000114
 C         4.129521        -0.366897        -0.126274
 O         3.966357         1.083975         0.132903
 C         2.685521         0.994148        -0.492664
 C         3.079972        -0.303524        -1.331832
 O         1.749824        -0.855819        -1.057465
 H         0.300001         1.581916         0.647815
 H        -0.069861         0.773568        -0.831263
 H        -0.520642        -0.039280         0.680183
 H         2.254366         0.006299         2.174676
 H         1.434953        -1.501442         1.787813
 H         4.382010        -1.061156         1.756491
 H         3.655977        -2.230736         0.557298
 H         5.158180        -0.614438        -0.396411
 H         2.226124         1.946581        -0.729104
 H         3.355975        -0.307922        -2.370128
