19
Iteration:  4551charge 0 multiplicity 1
 C         0.176391         0.493865         0.252727
 C         1.634142         0.104520         0.114689
 C         2.214907        -0.610600         1.402072
 C         3.506180        -1.183813         0.962006
 C         4.072370        -0.362028        -0.178081
 O         4.014705         1.035803         0.135361
 C         2.721737         1.094773        -0.542134
 C         3.013136        -0.281376        -1.302162
 O         1.864467        -0.914232        -0.978572
 H         0.045960         1.133850         1.136360
 H        -0.116502         1.083572        -0.582665
 H        -0.318138        -0.424642         0.327242
 H         2.352185         0.286501         2.064232
 H         1.484035        -1.266352         1.747546
 H         4.224138        -1.358875         1.835118
 H         3.292722        -2.155154         0.532708
 H         4.944842        -0.888944        -0.561777
 H         2.495029         2.091723        -0.937408
 H         3.482050        -0.282404        -2.250991
