19
Iteration:  2793
 C         0.213586         0.507486         0.308435
 C         1.639275         0.097024         0.085791
 C         2.157293        -0.620938         1.373143
 C         3.591292        -1.204721         1.018132
 C         4.109089        -0.377587        -0.122647
 O         3.974218         1.017610         0.154849
 C         2.682198         1.016113        -0.572290
 C         3.092642        -0.243911        -1.387701
 O         1.811298        -0.842840        -1.042069
 H         0.258960         1.092056         1.221957
 H        -0.344250         1.249980        -0.319386
 H        -0.501914        -0.369836         0.318387
 H         2.172260         0.102887         2.285787
 H         1.410356        -1.349398         1.685468
 H         4.321365        -1.349448         1.827244
 H         3.467235        -2.252307         0.672235
 H         5.124675        -0.492659        -0.331985
 H         2.268026         2.006193        -0.850432
 H         3.450362        -0.287004        -2.425833
