19
Iteration:  1388
 C         0.222328         0.458867         0.230501
 C         1.637957         0.041003         0.114722
 C         2.254429        -0.491899         1.444668
 C         3.455011        -1.244320         0.956909
 C         4.096844        -0.355547        -0.119001
 O         3.957601         1.102879         0.139906
 C         2.702401         0.980496        -0.579590
 C         3.069267        -0.254112        -1.307878
 O         1.828762        -0.909142        -1.023821
 H         0.041249         1.082078         1.063961
 H        -0.156212         0.993874        -0.697268
 H        -0.498466        -0.331971         0.439533
 H         2.663824         0.327088         2.057921
 H         1.623560        -1.001413         2.185495
 H         4.244906        -1.449526         1.667573
 H         3.110161        -2.082065         0.379859
 H         5.156750        -0.592821        -0.352065
 H         2.501290         1.975309        -0.907506
 H         3.488318        -0.406681        -2.253000
