19
Iteration:  1271
 C         0.157755         0.536158         0.261954
 C         1.562709         0.160753         0.123696
 C         2.203948        -0.609754         1.284503
 C         3.587238        -1.255526         0.937775
 C         4.163445        -0.364594        -0.132835
 O         3.948936         1.081190         0.095753
 C         2.722769         1.055357        -0.640866
 C         3.106511        -0.301218        -1.208686
 O         1.839066        -0.896918        -0.870448
 H         0.039513         1.089441         1.203075
 H        -0.267205         1.025148        -0.612189
 H        -0.346226        -0.449564         0.475580
 H         2.283152        -0.151536         2.254560
 H         1.366176        -1.268858         1.461152
 H         4.070945        -1.358738         1.946563
 H         3.399429        -2.115642         0.349229
 H         5.190091        -0.570842        -0.410940
 H         2.299673         1.979378        -1.133747
 H         3.325660        -0.547667        -2.314613
