19
Iteration:  3330charge 0 multiplicity 1
 C         0.213092         0.463234         0.165461
 C         1.593071         0.039391         0.228038
 C         2.179558        -0.653800         1.407422
 C         3.491385        -1.296326         0.919702
 C         4.169054        -0.328192        -0.157832
 O         4.083526         1.153617         0.113594
 C         2.732200         1.054512        -0.538372
 C         2.979552        -0.219474        -1.246284
 O         1.772871        -0.842966        -1.026851
 H         0.028852         1.150326         0.932178
 H         0.074533         1.152674        -0.617859
 H        -0.400633        -0.468464         0.233121
 H         2.535659         0.011410         2.290911
 H         1.467122        -1.358183         1.838744
 H         4.057674        -1.468012         1.865919
 H         3.433297        -2.342078         0.565373
 H         5.145262        -0.689084        -0.471079
 H         2.271587         2.066362        -0.856480
 H         3.407494        -0.501488        -2.181035
