19
Iteration:   658charge 0 multiplicity 1
 C         0.191497         0.536369         0.269512
 C         1.617657         0.029102         0.116417
 C         2.280065        -0.543224         1.374368
 C         3.606911        -1.194092         1.080994
 C         4.171118        -0.432804        -0.102195
 O         3.928828         1.089769         0.116716
 C         2.673634         0.985800        -0.567294
 C         3.087944        -0.333404        -1.310582
 O         1.709922        -0.844318        -1.088307
 H         0.014872         1.123437         1.133291
 H         0.048427         1.321303        -0.606404
 H        -0.470553        -0.361730         0.026351
 H         2.352936         0.369251         2.084274
 H         1.499976        -1.186474         1.729970
 H         4.252725        -1.135545         1.995745
 H         3.571726        -2.328692         0.878143
 H         5.168183        -0.605027        -0.474530
 H         2.268067         1.958261        -0.912133
 H         3.541030        -0.428185        -2.319004
