19
Iteration:  3103charge 0 multiplicity 1
 C         0.238356         0.626494         0.142430
 C         1.605589        -0.037793         0.141023
 C         2.290419        -0.651801         1.464003
 C         3.677534        -1.212760         1.025424
 C         4.146271        -0.431529        -0.257093
 O         3.925470         1.041888         0.201054
 C         2.616769         0.989000        -0.466544
 C         2.998176        -0.199740        -1.268632
 O         1.732430        -0.813875        -1.106235
 H         0.102042         1.488735         0.820912
 H         0.257494         0.909410        -0.837312
 H        -0.417642        -0.110775         0.403196
 H         2.208079         0.132670         2.127110
 H         1.770679        -1.462276         2.007055
 H         4.414639        -1.163235         1.857312
 H         3.562454        -2.274038         0.895347
 H         5.144090        -0.454283        -0.719784
 H         2.294312         1.876762        -0.815694
 H         3.271140        -0.346197        -2.296062
