19
Iteration:  3767charge 0 multiplicity 1
 C         0.233263         0.585354         0.240564
 C         1.629865         0.012409         0.071563
 C         2.261076        -0.548577         1.325892
 C         3.651636        -1.281711         1.067907
 C         4.162045        -0.420890        -0.159274
 O         3.901844         1.000523         0.244253
 C         2.704766         0.980537        -0.461382
 C         2.970112        -0.175218        -1.304513
 O         1.744461        -0.807064        -1.161374
 H         0.250590         1.543619         0.800081
 H        -0.338658         0.740841        -0.651436
 H        -0.145837        -0.311022         0.857887
 H         2.400472         0.255933         2.019659
 H         1.619935        -1.295473         1.715302
 H         4.305761        -1.259620         1.880562
 H         3.498415        -2.251029         0.666750
 H         5.056955        -0.777286        -0.521916
 H         2.194511         1.884575        -0.882069
 H         3.476753        -0.219814        -2.254933
