19
Iteration:  2582charge 0 multiplicity 1
 C         0.169682         0.460483         0.344308
 C         1.593428        -0.004780         0.180336
 C         2.197238        -0.693326         1.378533
 C         3.478483        -1.288690         0.931387
 C         4.120501        -0.269639        -0.155311
 O         3.994662         1.160494         0.089167
 C         2.733084         1.049071        -0.573125
 C         3.133444        -0.232927        -1.289002
 O         1.869217        -0.833699        -1.010185
 H         0.244665         1.293192         1.001618
 H        -0.281666         0.908514        -0.597937
 H        -0.443756        -0.272148         0.736354
 H         2.284999         0.117515         2.274517
 H         1.395031        -1.342684         1.751384
 H         3.973396        -1.756425         1.787393
 H         3.009884        -2.153473         0.267589
 H         5.095233        -0.481398        -0.459582
 H         2.308808         1.899165        -1.170353
 H         3.505799        -0.448522        -2.332615
