19
Iteration:  3961
 C         0.226809         0.635758         0.169542
 C         1.604332         0.082630         0.196923
 C         2.263010        -0.603667         1.419738
 C         3.581401        -1.267145         0.961103
 C         4.149388        -0.380903        -0.226525
 O         3.878859         0.964030         0.266434
 C         2.680205         0.995346        -0.543537
 C         3.066440        -0.106898        -1.406662
 O         1.806971        -0.967798        -1.006192
 H         0.162370         1.595420         0.657830
 H        -0.056103         0.794478        -0.817713
 H        -0.453049        -0.120608         0.611382
 H         2.465480         0.029274         2.314393
 H         1.509573        -1.241572         1.751882
 H         4.331765        -1.177516         1.793065
 H         3.539485        -2.310193         0.893053
 H         5.114855        -0.472316        -0.632298
 H         2.396564         1.996784        -0.801453
 H         3.171228        -0.073906        -2.451151
