19
Iteration:  3553charge 0 multiplicity 1
 C         0.218236         0.529580         0.297552
 C         1.578034         0.074487         0.107734
 C         2.202237        -0.668830         1.354300
 C         3.667388        -1.231045         0.998415
 C         4.125716        -0.344278        -0.069934
 O         3.975443         1.032676         0.188232
 C         2.744631         1.008917        -0.594869
 C         3.069890        -0.233131        -1.301127
 O         1.662895        -0.826540        -1.123891
 H         0.181742         1.169536         1.262849
 H        -0.175677         1.061139        -0.610352
 H        -0.452028        -0.271510         0.498059
 H         2.339624         0.087756         2.101306
 H         1.459404        -1.439030         1.740413
 H         4.276789        -1.237761         1.912605
 H         3.805506        -2.209064         0.482873
 H         5.190444        -0.611533        -0.495233
 H         2.377815         1.977293        -0.836095
 H         3.520743        -0.224222        -2.267114
