19
Iteration:  4693charge 0 multiplicity 1
 C         0.203020         0.602549         0.245648
 C         1.633155         0.002591         0.151074
 C         2.211502        -0.591850         1.366543
 C         3.523541        -1.234688         0.951659
 C         4.053105        -0.420607        -0.227026
 O         3.931484         1.112439         0.236809
 C         2.720700         0.986970        -0.525852
 C         3.028128        -0.200336        -1.334393
 O         1.899554        -0.952045        -1.020706
 H         0.220925         1.679933         0.579395
 H        -0.248940         0.577322        -0.748334
 H        -0.389048         0.073645         0.972755
 H         2.414033         0.317513         2.068045
 H         1.617549        -1.306665         1.899745
 H         4.352316        -1.148664         1.713492
 H         3.480949        -2.278947         0.706043
 H         5.078094        -0.691989        -0.627850
 H         2.455156         1.990767        -0.859635
 H         3.260756        -0.290620        -2.364070
