19
Iteration:   997charge 0 multiplicity 1
 C         0.284771         0.644325         0.349593
 C         1.631715         0.101364         0.158366
 C         2.047563        -0.810819         1.284226
 C         3.514348        -1.050235         1.009140
 C         4.131295        -0.395418        -0.225994
 O         3.944887         1.103812         0.076267
 C         2.698888         0.954768        -0.591859
 C         3.102148        -0.213689        -1.308419
 O         1.881135        -0.987318        -0.955050
 H         0.251900         1.176776         1.212140
 H        -0.045326         1.409089        -0.434416
 H        -0.222745        -0.297438         0.693815
 H         1.865376        -0.207732         2.269343
 H         1.516065        -1.746951         1.142386
 H         4.068726        -0.623078         1.969787
 H         3.752924        -2.071888         1.065577
 H         5.159140        -0.581635        -0.336713
 H         2.259912         1.931693        -0.925418
 H         3.267662        -0.390515        -2.375596
