19
Iteration:  2365charge 0 multiplicity 1
 C         0.223337         0.606457         0.226142
 C         1.582969        -0.074536         0.142436
 C         2.241825        -0.713839         1.385858
 C         3.700509        -1.273373         0.985472
 C         4.165088        -0.322398        -0.168090
 O         3.907974         1.127445         0.144706
 C         2.671576         0.989410        -0.530847
 C         3.040782        -0.219769        -1.256993
 O         1.711446        -0.839509        -1.021696
 H         0.172010         1.466960         0.879237
 H         0.098759         1.188073        -0.813722
 H        -0.596900        -0.131487         0.358900
 H         2.241455        -0.010010         2.208793
 H         1.640732        -1.517481         1.685375
 H         4.370174        -1.169928         1.812762
 H         3.656055        -2.224096         0.573918
 H         5.101514        -0.678272        -0.602920
 H         2.310699         2.041087        -0.870831
 H         3.592375        -0.247787        -2.277013
