19
Iteration:  4836charge 0 multiplicity 1
 C         0.114499         0.539332         0.251196
 C         1.618541        -0.001720         0.140968
 C         2.198826        -0.629314         1.351131
 C         3.581725        -1.220027         0.928348
 C         4.155243        -0.341514        -0.130108
 O         3.966133         1.096614         0.138023
 C         2.734095         1.055820        -0.576888
 C         3.024845        -0.231356        -1.321116
 O         1.852852        -0.928039        -0.953451
 H         0.125280         1.374402         1.003650
 H        -0.104419         1.091327        -0.709095
 H        -0.670874        -0.060092         0.697682
 H         2.395695         0.159584         2.120516
 H         1.517124        -1.328346         1.850583
 H         4.243697        -1.485054         1.721102
 H         3.440155        -2.160062         0.497762
 H         5.122253        -0.761251        -0.406258
 H         2.333429         2.028288        -0.800162
 H         3.379869        -0.383239        -2.324893
