19
Iteration:  1714charge 0 multiplicity 1
 C         0.195082         0.515175         0.293265
 C         1.614318         0.002123         0.081964
 C         2.170722        -0.554324         1.421310
 C         3.551921        -1.182458         1.038257
 C         4.095102        -0.405050        -0.186794
 O         4.004604         1.107842         0.151746
 C         2.720093         0.980025        -0.538706
 C         3.105493        -0.242123        -1.317739
 O         1.798342        -0.892248        -1.102659
 H         0.118890         1.324479         1.004301
 H        -0.272690         0.742765        -0.738427
 H        -0.390981        -0.299480         0.775017
 H         2.472541         0.278344         2.025212
 H         1.478731        -1.175800         1.969684
 H         4.144024        -1.276003         1.973440
 H         3.371981        -2.268639         0.656460
 H         5.206329        -0.684629        -0.342780
 H         2.271641         2.066254        -0.891121
 H         3.338948        -0.288710        -2.394192
