19
Iteration:  1750
 C         0.182306         0.621123         0.258861
 C         1.605851         0.114713         0.139575
 C         2.172446        -0.701018         1.321272
 C         3.579617        -1.176924         1.002496
 C         4.143552        -0.321452        -0.189253
 O         3.921661         1.138316         0.196461
 C         2.733716         0.986683        -0.631749
 C         3.079060        -0.328144        -1.322712
 O         1.824629        -0.949909        -0.926136
 H         0.073847         1.176594         1.258556
 H        -0.138553         1.281867        -0.473731
 H        -0.497762        -0.325860         0.178636
 H         2.167795        -0.025895         2.273087
 H         1.463433        -1.480379         1.514693
 H         4.489478        -1.203960         1.672499
 H         3.487299        -2.182262         0.501815
 H         5.176650        -0.621140        -0.457698
 H         2.590579         1.957227        -1.057696
 H         3.303836        -0.698591        -2.345429
