19
Iteration:  4555
 C         0.202589         0.493550         0.244778
 C         1.648349         0.153402         0.160564
 C         2.178567        -0.600564         1.386897
 C         3.508725        -1.182329         0.931590
 C         4.068669        -0.315841        -0.211136
 O         4.029306         1.039482         0.158246
 C         2.713470         1.026650        -0.562185
 C         3.049341        -0.278683        -1.319330
 O         1.846241        -0.920668        -0.930723
 H         0.010727         1.002022         1.223870
 H        -0.148648         1.095553        -0.676749
 H        -0.383128        -0.476224         0.296279
 H         2.305831         0.183448         2.098315
 H         1.378931        -1.331146         1.747524
 H         4.127935        -1.418015         1.758153
 H         3.262357        -2.188797         0.468363
 H         5.034525        -0.726367        -0.448940
 H         2.554380         2.026212        -0.994546
 H         3.433356        -0.390328        -2.355956
