19
Iteration:  3073
 C         0.175230         0.612335         0.341465
 C         1.622478         0.091500         0.073046
 C         2.182354        -0.611760         1.270604
 C         3.548373        -1.290919         0.924349
 C         4.159125        -0.371719        -0.231338
 O         3.929342         1.094343         0.242178
 C         2.708934         1.019600        -0.529561
 C         3.072419        -0.246050        -1.317392
 O         1.861800        -0.946206        -0.952465
 H         0.039882         1.506419         1.007726
 H        -0.226340         0.997280        -0.633845
 H        -0.357171        -0.301440         0.632561
 H         2.265385         0.156018         2.065677
 H         1.501666        -1.449336         1.654369
 H         4.174072        -1.129093         1.843396
 H         3.467305        -2.392963         0.668892
 H         5.232072        -0.504756        -0.531671
 H         2.314223         1.972579        -0.982503
 H         3.322877        -0.433280        -2.403793
