19
Iteration:  4349
 C         0.244269         0.601601         0.243940
 C         1.609051         0.078234         0.097015
 C         2.217053        -0.595681         1.314004
 C         3.601003        -1.209301         0.950160
 C         4.124988        -0.351736        -0.186173
 O         3.930144         1.025092         0.248944
 C         2.663387         1.013373        -0.515380
 C         3.059827        -0.283381        -1.353026
 O         1.800385        -0.915750        -0.972232
 H         0.134533         1.364757         0.953671
 H         0.064958         1.052861        -0.741592
 H        -0.448420        -0.214696         0.427938
 H         2.350464         0.167978         2.054618
 H         1.464876        -1.330405         1.758211
 H         4.166371        -1.112303         1.844975
 H         3.458281        -2.286362         0.613487
 H         5.184625        -0.555619        -0.344693
 H         2.433416         1.983082        -0.927213
 H         3.283268        -0.629308        -2.343009
