19
Iteration:  1632charge 0 multiplicity 1
 C         0.293175         0.605994         0.221923
 C         1.587764        -0.018636         0.137019
 C         2.167697        -0.656807         1.400655
 C         3.584693        -1.228443         1.004895
 C         4.112060        -0.366336        -0.103760
 O         3.933999         1.178812         0.045093
 C         2.692740         0.995141        -0.531282
 C         3.072807        -0.322128        -1.249604
 O         1.819016        -0.901985        -1.062518
 H         0.185968         1.295157         1.111422
 H        -0.028915         1.213691        -0.573303
 H        -0.399351        -0.283495         0.337813
 H         2.413151         0.047125         2.291816
 H         1.330491        -1.341601         1.687067
 H         4.100237        -1.162910         2.047754
 H         3.427242        -2.210697         0.668161
 H         5.153116        -0.492283        -0.147318
 H         2.258613         1.926207        -1.046835
 H         3.397865        -0.298372        -2.335280
