19
Iteration:  3550
 C         0.200722         0.542595         0.310886
 C         1.604851         0.092905         0.098192
 C         2.183640        -0.665381         1.360286
 C         3.645240        -1.245770         0.958655
 C         4.133153        -0.331613        -0.080937
 O         3.967005         1.040448         0.161988
 C         2.756109         0.989533        -0.590200
 C         3.075779        -0.241680        -1.263604
 O         1.665985        -0.817885        -1.111889
 H         0.200471         1.020602         1.286454
 H        -0.154459         0.955640        -0.590003
 H        -0.405384        -0.362780         0.480508
 H         2.242708         0.107474         2.171498
 H         1.463020        -1.448648         1.773558
 H         4.231151        -1.262188         1.922946
 H         3.896864        -2.252436         0.451979
 H         5.203224        -0.576667        -0.338142
 H         2.428701         2.079941        -0.890466
 H         3.582052        -0.277344        -2.267310
