19
Iteration:  4171
 C         0.186470         0.525952         0.276678
 C         1.656063         0.085118         0.132450
 C         2.143299        -0.628881         1.360869
 C         3.619634        -1.260097         1.000129
 C         4.086390        -0.436107        -0.167817
 O         3.960063         1.084235         0.170081
 C         2.738709         1.058414        -0.614269
 C         3.072020        -0.205029        -1.327961
 O         1.796575        -0.863240        -0.986273
 H         0.133861         1.382428         1.012378
 H        -0.269602         0.895262        -0.643322
 H        -0.477967        -0.283574         0.602040
 H         2.169271         0.020199         2.289667
 H         1.445892        -1.449121         1.523245
 H         4.308417        -1.076328         1.860169
 H         3.638449        -2.379299         0.874333
 H         5.090459        -0.591848        -0.574185
 H         2.442411         2.060359        -1.100444
 H         3.399224        -0.555072        -2.378055
