19
Iteration:    97
 C         0.245004         0.681634         0.301738
 C         1.611637         0.085600         0.033507
 C         2.093667        -0.538544         1.272760
 C         3.536938        -1.098067         1.026674
 C         4.231175        -0.386369        -0.173610
 O         3.872873         1.074895         0.200750
 C         2.714379         0.977934        -0.608625
 C         3.077859        -0.367115        -1.322682
 O         1.846759        -1.071277        -0.959263
 H         0.369678         1.220262         1.368606
 H        -0.146104         1.348149        -0.405744
 H        -0.417327        -0.141147         0.463251
 H         2.249634         0.139134         2.161244
 H         1.470976        -1.443628         1.606766
 H         4.063903        -0.920836         1.918203
 H         3.616250        -2.255866         0.795779
 H         5.274046        -0.581470        -0.310883
 H         2.511762         2.013466        -1.158006
 H         3.378789        -0.474888        -2.336106
