19
Iteration:  3423
 C         0.163174         0.584003         0.391069
 C         1.628668         0.014068         0.108642
 C         2.121481        -0.674285         1.331389
 C         3.513040        -1.235895         0.964048
 C         4.117489        -0.373722        -0.067884
 O         4.001443         1.167711         0.108701
 C         2.731824         1.029416        -0.551809
 C         3.089575        -0.218549        -1.358366
 O         1.857110        -0.933100        -1.073926
 H         0.232678         1.484938         1.017891
 H        -0.332518         0.979342        -0.489692
 H        -0.212090        -0.294586         0.817099
 H         2.238771         0.012447         2.130857
 H         1.334677        -1.388219         1.601096
 H         4.179357        -1.328500         1.809071
 H         3.586794        -2.185253         0.483232
 H         5.160709        -0.621897        -0.369063
 H         2.258436         1.922895        -0.722024
 H         3.452338        -0.603493        -2.317956
