19
Iteration:  4497
 C         0.189345         0.556127         0.260652
 C         1.625794         0.102588         0.092217
 C         2.228144        -0.627989         1.295830
 C         3.641294        -1.271322         1.056901
 C         4.102630        -0.391205        -0.172507
 O         3.931990         1.075332         0.216976
 C         2.721395         1.082351        -0.562486
 C         3.043768        -0.285305        -1.347670
 O         1.763340        -0.896077        -0.998543
 H         0.343102         1.579669         0.712763
 H        -0.298059         0.698249        -0.727436
 H        -0.483149        -0.068331         0.835998
 H         2.126425        -0.079396         2.293924
 H         1.470928        -1.377282         1.447679
 H         4.463070        -1.029564         1.831021
 H         3.555799        -2.350838         0.857014
 H         5.090725        -0.627154        -0.545269
 H         2.509191         2.065628        -1.009758
 H         3.482291        -0.433730        -2.337155
