19
Iteration:  4435
 C         0.219221         0.557998         0.200237
 C         1.628542         0.081554         0.141236
 C         2.253783        -0.580573         1.345728
 C         3.655840        -1.239265         1.021503
 C         4.141881        -0.425241        -0.120804
 O         3.848644         0.992684         0.172358
 C         2.681380         0.998862        -0.514038
 C         3.033830        -0.218360        -1.332954
 O         1.762939        -0.874986        -1.039899
 H         0.053200         1.247626         1.017037
 H         0.170899         1.185500        -0.709746
 H        -0.559380        -0.179593         0.271177
 H         2.655953         0.212249         1.865502
 H         1.532651        -1.180352         1.926858
 H         4.333275        -0.961383         1.737823
 H         3.803646        -2.308196         0.842958
 H         5.165777        -0.518129        -0.368817
 H         2.433865         1.981477        -0.906452
 H         3.259715        -0.240798        -2.358592
