19
Iteration:   208charge 0 multiplicity 1
 C         0.255950         0.573532         0.201769
 C         1.611783        -0.028125         0.107272
 C         2.296590        -0.495014         1.381651
 C         3.655473        -1.164904         1.056152
 C         4.134876        -0.337188        -0.015515
 O         3.858986         1.053218         0.137380
 C         2.698688         0.928218        -0.533345
 C         3.059435        -0.398317        -1.221109
 O         1.715054        -0.883904        -1.226680
 H         0.391364         1.433560         0.970520
 H        -0.104537         1.073850        -0.784938
 H        -0.569420        -0.047677         0.688471
 H         2.424573         0.516204         1.887104
 H         1.567436        -1.017367         1.999734
 H         4.187777        -1.183883         1.949448
 H         3.484986        -2.176978         0.599143
 H         5.200466        -0.483463        -0.159371
 H         2.155950         1.817711        -0.974026
 H         3.535410        -0.359716        -2.150106
