19
Iteration:  3453
 C         0.154936         0.583173         0.227080
 C         1.638452         0.044425         0.148584
 C         2.198338        -0.634907         1.345706
 C         3.606301        -1.214580         0.899914
 C         4.125744        -0.416185        -0.189317
 O         3.932943         1.063409         0.200145
 C         2.725337         1.029207        -0.488047
 C         3.070665        -0.200197        -1.339406
 O         1.808104        -0.885312        -0.953270
 H        -0.071460         1.432682         0.992935
 H        -0.067035         0.779474        -0.834884
 H        -0.532619        -0.247842         0.506161
 H         2.259680         0.043699         2.209511
 H         1.413532        -1.414965         1.663032
 H         4.390665        -1.136430         1.707269
 H         3.623175        -2.322234         0.685084
 H         5.232055        -0.628743        -0.567715
 H         2.303987         2.024160        -0.825973
 H         3.371106        -0.440310        -2.408574
