19
Iteration:  4518
 C         0.177914         0.558921         0.250430
 C         1.632808         0.015429         0.093350
 C         2.240477        -0.592324         1.397662
 C         3.604697        -1.119844         1.061453
 C         4.208924        -0.376879        -0.166785
 O         3.962136         0.958675         0.230883
 C         2.698477         0.916176        -0.497317
 C         3.032937        -0.286322        -1.328664
 O         1.706221        -0.787153        -1.166570
 H         0.025285         1.506608         0.811356
 H        -0.256317         0.650481        -0.743678
 H        -0.483155        -0.185625         0.634238
 H         2.476332         0.314565         2.084681
 H         1.684475        -1.138142         2.100944
 H         4.393944        -0.926277         1.890483
 H         3.637606        -2.163796         0.764535
 H         5.150561        -0.664593        -0.670336
 H         2.289144         1.854788        -0.897247
 H         3.247934        -0.151160        -2.400397
