19
Iteration:  2496
 C         0.224448         0.563108         0.197531
 C         1.580396        -0.035076         0.173855
 C         2.122628        -0.698084         1.372356
 C         3.579758        -1.158252         0.887604
 C         4.142915        -0.330840        -0.256667
 O         4.020116         1.104979         0.102052
 C         2.696738         1.041142        -0.432665
 C         3.021756        -0.179313        -1.265175
 O         1.826857        -0.927336        -0.901818
 H         0.120774         1.030810         1.118984
 H        -0.001327         1.194402        -0.720205
 H        -0.554680        -0.201968         0.197854
 H         2.038911        -0.195187         2.374489
 H         1.646028        -1.628557         1.538407
 H         4.312728        -1.214344         1.714471
 H         3.623623        -2.236087         0.461115
 H         5.165247        -0.563203        -0.376097
 H         2.299997         1.985439        -0.955661
 H         3.391306        -0.214630        -2.348008
