19
Iteration:  3002
 C         0.121359         0.579244         0.190481
 C         1.619652         0.094764         0.196968
 C         2.283578        -0.588684         1.386070
 C         3.645174        -1.150863         1.006387
 C         4.129095        -0.422208        -0.286436
 O         3.952146         0.913546         0.308659
 C         2.691197         1.061909        -0.519163
 C         2.989494        -0.194999        -1.437235
 O         1.813857        -0.926682        -1.006554
 H        -0.169208         1.269985         0.988800
 H        -0.240570         1.133286        -0.738193
 H        -0.389990        -0.414327        -0.048778
 H         2.342473         0.183927         2.180691
 H         1.601035        -1.386387         1.679414
 H         4.432712        -0.922581         1.720894
 H         3.532974        -2.211013         0.857969
 H         5.180271        -0.561547        -0.524151
 H         2.563908         2.154662        -0.562481
 H         3.152667        -0.363918        -2.500357
