19
Iteration:  4954
 C         0.171877         0.554578         0.266493
 C         1.631118         0.042151         0.221268
 C         2.217215        -0.733386         1.404580
 C         3.493499        -1.219822         0.945981
 C         4.159764        -0.330843        -0.162349
 O         4.014460         1.154263         0.063523
 C         2.683843         1.016621        -0.630553
 C         3.062649        -0.243071        -1.278043
 O         1.851087        -0.897120        -0.926406
 H        -0.184329         1.066307         1.204272
 H         0.118600         1.227715        -0.670990
 H        -0.610577        -0.243609         0.131798
 H         2.126278         0.005800         2.271897
 H         1.380349        -1.353895         1.521469
 H         4.152560        -1.645905         1.813989
 H         3.271877        -2.207676         0.388737
 H         5.215001        -0.471527        -0.455045
 H         2.299831         1.934019        -1.000683
 H         3.366604        -0.228784        -2.277062
