19
Iteration:  2095charge 0 multiplicity 1
 C         0.217360         0.481074         0.380079
 C         1.624119         0.089164         0.064354
 C         2.153642        -0.598964         1.316237
 C         3.562377        -1.143262         1.005234
 C         4.149555        -0.391378        -0.155805
 O         3.951995         1.094044         0.137596
 C         2.745513         0.976020        -0.539733
 C         3.034064        -0.252058        -1.350310
 O         1.820099        -0.907728        -1.018251
 H         0.126001         1.082285         1.324440
 H        -0.099653         1.099571        -0.521126
 H        -0.529124        -0.366946         0.374321
 H         2.207855         0.210344         2.073002
 H         1.442999        -1.423300         1.695432
 H         4.239469        -1.203213         1.887037
 H         3.517369        -2.240968         0.653990
 H         5.213814        -0.454316        -0.471769
 H         2.315229         1.895846        -0.862858
 H         3.391249        -0.278762        -2.378080
