19
Iteration:  3191charge 0 multiplicity 1
 C         0.262091         0.481769         0.245231
 C         1.623227        -0.019785         0.077759
 C         2.294458        -0.542265         1.469509
 C         3.573060        -1.181600         0.968602
 C         4.107884        -0.481620        -0.176972
 O         3.921115         1.090199         0.255567
 C         2.661074         1.007955        -0.472059
 C         3.043010        -0.267117        -1.357483
 O         1.762407        -0.802149        -1.168792
 H         0.114085         1.186794         1.158171
 H         0.055590         1.204283        -0.507679
 H        -0.590602        -0.219092         0.341406
 H         2.538607         0.294510         2.098699
 H         1.518245        -1.139398         2.030838
 H         4.442466        -1.272115         1.663958
 H         3.275757        -2.225741         0.807151
 H         5.183704        -0.699214        -0.457626
 H         2.342312         1.913852        -0.847965
 H         3.419454        -0.392777        -2.407069
