19
Iteration:  1723charge 0 multiplicity 1
 C         0.186955         0.508664         0.329123
 C         1.603164         0.077282         0.116062
 C         2.176356        -0.558528         1.308048
 C         3.475489        -1.252252         1.047332
 C         4.164879        -0.346889        -0.169420
 O         4.026279         1.086778         0.133269
 C         2.620184         0.965401        -0.566677
 C         3.095684        -0.217376        -1.315443
 O         1.871801        -0.924931        -1.019609
 H         0.240807         1.307684         1.034747
 H        -0.260224         0.983893        -0.634317
 H        -0.406373        -0.288212         0.691836
 H         2.257665         0.199177         2.030213
 H         1.389299        -1.256368         1.676705
 H         4.245768        -1.108514         1.766593
 H         3.323235        -2.302090         0.738103
 H         5.217386        -0.677684        -0.391337
 H         2.399969         2.043777        -1.032284
 H         3.371125        -0.379888        -2.360839
