19
Iteration:  2858
 C         0.199425         0.506642         0.178888
 C         1.662987         0.114538         0.216103
 C         2.154402        -0.649942         1.363638
 C         3.523804        -1.244744         0.904915
 C         4.094737        -0.363404        -0.210469
 O         4.025281         1.116607         0.185340
 C         2.722749         1.023977        -0.540116
 C         3.021735        -0.192797        -1.344257
 O         1.837199        -0.924085        -0.883087
 H         0.200845         1.223606         1.055493
 H        -0.038399         1.066454        -0.919401
 H        -0.511426        -0.439365         0.282122
 H         2.259290        -0.041276         2.324820
 H         1.528779        -1.486757         1.511464
 H         4.216971        -1.244703         1.718393
 H         3.441779        -2.243564         0.473352
 H         5.074215        -0.746165        -0.405596
 H         2.233871         1.943575        -0.947676
 H         3.257101        -0.211023        -2.418436
