19
Iteration:   581
 C         0.246157         0.580690         0.211658
 C         1.618942        -0.014415         0.072278
 C         2.303212        -0.550755         1.381204
 C         3.661242        -1.193530         1.046978
 C         4.123075        -0.377808        -0.104079
 O         3.866456         1.086094         0.209940
 C         2.692303         0.968365        -0.534438
 C         3.069617        -0.343895        -1.329521
 O         1.685044        -0.871906        -1.085558
 H         0.347777         1.540630         0.734635
 H        -0.066556         0.829027        -0.908017
 H        -0.545359        -0.072819         0.716402
 H         2.228597         0.495262         1.889533
 H         1.667971        -1.209062         1.934194
 H         4.345489        -1.111964         1.912612
 H         3.577776        -2.365942         0.922146
 H         5.132575        -0.447436        -0.424266
 H         2.396978         1.868252        -1.071708
 H         3.525612        -0.552210        -2.297373
