19
Iteration:  4330charge 0 multiplicity 1
 C         0.155450         0.719133         0.160910
 C         1.586535         0.058321         0.096211
 C         2.248947        -0.563747         1.301483
 C         3.714970        -1.233400         0.990786
 C         4.157553        -0.429873        -0.202811
 O         3.829187         0.958376         0.283211
 C         2.706139         1.014711        -0.548438
 C         3.032923        -0.227115        -1.261370
 O         1.816596        -0.975703        -1.014199
 H         0.447968         1.511933         0.857097
 H        -0.402293         1.131242        -0.704212
 H        -0.570761        -0.033548         0.657340
 H         2.333898         0.061289         2.239733
 H         1.691899        -1.457193         1.647254
 H         4.511738        -0.863603         1.802346
 H         3.669813        -2.353440         0.927745
 H         5.112671        -0.426999        -0.806496
 H         2.403062         2.045479        -0.685810
 H         3.251285        -0.176429        -2.352300
