19
Iteration:  1565
 C         0.162412         0.463803         0.155466
 C         1.627660         0.069486         0.123207
 C         2.165860        -0.600052         1.491319
 C         3.532206        -1.237637         1.053531
 C         4.128790        -0.382125        -0.117698
 O         4.052202         1.099355         0.030664
 C         2.763499         1.064751        -0.516553
 C         3.006059        -0.215992        -1.303166
 O         1.810947        -0.892444        -1.005630
 H        -0.096727         1.186571         1.001486
 H        -0.154360         1.069903        -0.686390
 H        -0.493857        -0.485092         0.177754
 H         2.191727         0.367381         2.168438
 H         1.598561        -1.482327         1.908424
 H         4.317640        -1.479333         1.898801
 H         3.386124        -2.253682         0.617165
 H         5.138571        -0.672092        -0.403177
 H         2.441227         2.056723        -0.977074
 H         3.244263        -0.333945        -2.412686
