19
Iteration:  1930charge 0 multiplicity 1
 C         0.162277         0.483294         0.254460
 C         1.620241         0.060217         0.133023
 C         2.165926        -0.727868         1.347810
 C         3.567179        -1.190561         1.053108
 C         4.113829        -0.368343        -0.097617
 O         4.140650         1.152899         0.027295
 C         2.743356         1.009710        -0.530731
 C         2.992050        -0.218075        -1.270244
 O         1.731492        -0.875656        -1.020277
 H         0.003817         1.056394         1.166056
 H         0.055188         1.311809        -0.654263
 H        -0.662316        -0.222642         0.281967
 H         2.184749        -0.019819         2.206747
 H         1.450250        -1.664503         1.623587
 H         4.171298        -1.225608         1.998248
 H         3.639514        -2.168362         0.489495
 H         5.207068        -0.305545        -0.368348
 H         2.241307         1.891763        -0.903416
 H         3.397266        -0.439021        -2.305464
