19
Iteration:   153charge 0 multiplicity 1
 C         0.137232         0.444390         0.084482
 C         1.615943         0.117573         0.197613
 C         2.136497        -0.559839         1.402466
 C         3.541806        -1.121327         1.037465
 C         4.162220        -0.397588        -0.211399
 O         4.145124         1.083442         0.044125
 C         2.707116         1.004351        -0.500524
 C         3.069213        -0.288927        -1.279345
 O         1.766313        -0.898250        -0.869080
 H        -0.267775         1.218820         0.806780
 H        -0.112892         0.846169        -0.907198
 H        -0.458683        -0.478467         0.159994
 H         2.226818         0.174567         2.254481
 H         1.363980        -1.314929         1.658765
 H         4.123130        -1.194724         1.907235
 H         3.425171        -2.195352         0.701091
 H         5.114713        -0.831930        -0.461247
 H         2.261137         1.909294        -1.054630
 H         3.327210        -0.248317        -2.302585
