19
Iteration:  2629
 C         0.140748         0.574656         0.177967
 C         1.542648         0.023839         0.119975
 C         2.243489        -0.568282         1.394314
 C         3.715744        -1.138964         0.893597
 C         4.090903        -0.460635        -0.315659
 O         3.912196         0.936413         0.278240
 C         2.692963         1.061946        -0.427531
 C         3.010256        -0.205065        -1.326074
 O         1.855223        -0.901403        -0.991418
 H         0.026433         1.195906         1.023868
 H         0.065243         1.209602        -0.635464
 H        -0.664045        -0.190209         0.046741
 H         2.304262         0.180645         2.237074
 H         1.677193        -1.383894         1.859621
 H         4.491818        -0.769516         1.673119
 H         3.844158        -2.270996         0.893358
 H         5.132650        -0.674313        -0.527639
 H         2.271420         2.085529        -0.632028
 H         3.344639        -0.172613        -2.398180
