19
Iteration:  1389
 C         0.222769         0.458657         0.227582
 C         1.634875         0.036569         0.110381
 C         2.262298        -0.495606         1.452756
 C         3.453424        -1.242947         0.956214
 C         4.098219        -0.354222        -0.115947
 O         3.954339         1.104386         0.139515
 C         2.701603         0.971667        -0.572726
 C         3.072968        -0.254703        -1.312757
 O         1.822188        -0.904649        -1.025605
 H         0.037966         1.107954         1.060553
 H        -0.121751         1.002369        -0.678633
 H        -0.510323        -0.343479         0.426392
 H         2.661093         0.326928         2.027897
 H         1.633491        -0.985718         2.188158
 H         4.272266        -1.434691         1.675804
 H         3.098773        -2.074829         0.413586
 H         5.135508        -0.620477        -0.382471
 H         2.488698         2.019129        -0.915617
 H         3.541422        -0.398972        -2.258278
