19
Iteration:  4848charge 0 multiplicity 1
 C         0.121369         0.579391         0.314797
 C         1.546842         0.058990         0.142693
 C         2.149325        -0.624409         1.403865
 C         3.500103        -1.239134         0.907928
 C         4.125621        -0.294794        -0.190456
 O         4.079510         1.063960         0.130480
 C         2.654664         1.034148        -0.544692
 C         3.094642        -0.226800        -1.373346
 O         1.937618        -0.968058        -0.920102
 H         0.117676         1.546919         0.818246
 H        -0.394543         0.560055        -0.698516
 H        -0.466132        -0.271511         0.656710
 H         2.270913         0.080063         2.238311
 H         1.492668        -1.521646         1.636896
 H         4.099110        -1.321520         1.764568
 H         3.291918        -2.093725         0.329437
 H         5.192201        -0.362082        -0.465551
 H         2.415421         2.098455        -0.833957
 H         3.420554        -0.470188        -2.410545
