19
Iteration:  2283
 C         0.170825         0.416275         0.162071
 C         1.609415         0.121138         0.182780
 C         2.324759        -0.593709         1.420201
 C         3.573265        -1.267114         0.936780
 C         4.180427        -0.405783        -0.205627
 O         4.003853         1.098141         0.127255
 C         2.636558         1.054199        -0.504956
 C         2.997796        -0.212919        -1.258623
 O         1.754275        -0.824149        -0.961805
 H        -0.004390         1.151619         0.966363
 H         0.021121         0.848941        -0.753664
 H        -0.566223        -0.404239         0.232619
 H         2.315240         0.240889         2.145530
 H         1.573801        -1.382139         1.722013
 H         4.339351        -1.579717         1.704771
 H         3.230946        -2.317476         0.526660
 H         5.192703        -0.736163        -0.453066
 H         2.504034         1.956083        -0.970587
 H         3.363848        -0.270912        -2.227894
