19
Iteration:  2785
 C         0.173810         0.530641         0.299462
 C         1.630022         0.126772         0.076737
 C         2.186278        -0.626454         1.385211
 C         3.522928        -1.255408         1.014525
 C         4.145713        -0.347569        -0.172994
 O         3.968458         1.053430         0.150575
 C         2.722797         1.025148        -0.557039
 C         3.020366        -0.198212        -1.370340
 O         1.872795        -0.896821        -0.987101
 H         0.135416         1.039254         1.280288
 H        -0.195138         1.082904        -0.464883
 H        -0.400966        -0.368725         0.412306
 H         2.160711        -0.025596         2.307547
 H         1.409349        -1.466322         1.342043
 H         4.309819        -1.186348         1.864661
 H         3.380130        -2.267873         0.586076
 H         5.163861        -0.805712        -0.276269
 H         2.527661         1.981619        -1.023130
 H         3.246069        -0.315031        -2.424538
