19
Iteration:  2768
 C         0.173667         0.521330         0.242379
 C         1.590897         0.128020         0.211595
 C         2.124473        -0.685601         1.305923
 C         3.555470        -1.220730         0.869480
 C         4.124306        -0.419631        -0.231491
 O         4.029561         1.113394         0.171102
 C         2.776415         1.108545        -0.550038
 C         3.054019        -0.228779        -1.252966
 O         1.832815        -0.960325        -0.881096
 H        -0.081397         1.381233         0.892084
 H        -0.243015         0.983811        -0.851032
 H        -0.512911        -0.373348         0.310661
 H         2.295273        -0.012119         2.167186
 H         1.439651        -1.449924         1.578733
 H         4.157460        -1.187619         1.713635
 H         3.459966        -2.269914         0.598432
 H         5.171551        -0.520639        -0.625555
 H         2.354197         2.079981        -0.909730
 H         3.392614        -0.290294        -2.317434
