19
Iteration:  3689
 C         0.152403         0.548980         0.266258
 C         1.594202         0.091466         0.131026
 C         2.210446        -0.660581         1.394016
 C         3.610595        -1.215123         1.043146
 C         4.136483        -0.425910        -0.227757
 O         3.970773         1.039200         0.186669
 C         2.762060         1.085903        -0.490347
 C         3.058131        -0.238997        -1.337277
 O         1.763599        -0.842277        -1.096436
 H         0.030661         0.859271         1.318220
 H        -0.104882         1.234992        -0.612022
 H        -0.604197        -0.362070         0.095426
 H         2.412030         0.013241         2.327818
 H         1.601155        -1.384481         1.893652
 H         4.372942        -1.386756         1.801738
 H         3.425162        -2.163322         0.528609
 H         5.162672        -0.722380        -0.449807
 H         2.349496         2.045049        -0.933074
 H         3.329808        -0.280953        -2.437261
