19
Iteration:  3194charge 0 multiplicity 1
 C         0.245942         0.513913         0.228449
 C         1.617436        -0.030964         0.100829
 C         2.301683        -0.551302         1.461871
 C         3.557571        -1.178191         0.961265
 C         4.124151        -0.477786        -0.199615
 O         3.922647         1.081229         0.259786
 C         2.666044         1.005266        -0.472196
 C         3.035839        -0.253549        -1.354847
 O         1.768847        -0.812777        -1.163188
 H         0.098901         1.095160         1.119973
 H         0.049251         1.219848        -0.594077
 H        -0.478287        -0.240893         0.410106
 H         2.507733         0.256202         2.197728
 H         1.578091        -1.134564         2.088945
 H         4.420023        -1.185154         1.669720
 H         3.327454        -2.287237         0.880848
 H         5.197553        -0.745444        -0.374089
 H         2.272376         1.980411        -0.885016
 H         3.392266        -0.354224        -2.446629
