19
Iteration:  1635
 C         0.290924         0.601674         0.226550
 C         1.606417         0.001283         0.147752
 C         2.136794        -0.662500         1.410335
 C         3.576674        -1.215192         1.009394
 C         4.126851        -0.344450        -0.109335
 O         3.945004         1.184208         0.038106
 C         2.700500         0.955770        -0.534739
 C         3.076495        -0.270470        -1.272526
 O         1.815168        -0.927899        -1.038092
 H         0.200238         1.279972         1.084720
 H        -0.128679         1.144585        -0.687554
 H        -0.355586        -0.228603         0.330841
 H         2.282491         0.034730         2.170417
 H         1.346827        -1.369558         1.696186
 H         4.149121        -1.374826         1.938339
 H         3.331068        -2.237544         0.694632
 H         5.199194        -0.559840        -0.174825
 H         2.279637         2.001918        -0.952497
 H         3.376198        -0.355449        -2.307002
