19
Iteration:  1679charge 0 multiplicity 1
 C         0.129179         0.514341         0.151903
 C         1.629730         0.120309         0.103644
 C         2.254831        -0.526676         1.369496
 C         3.648969        -1.239247         1.004077
 C         4.145299        -0.465268        -0.208593
 O         3.932100         1.018742         0.224810
 C         2.705556         1.041865        -0.471729
 C         3.057605        -0.261148        -1.329673
 O         1.774672        -0.868387        -0.964453
 H        -0.193488         1.482711         0.500777
 H        -0.254364         0.482400        -0.953634
 H        -0.385821        -0.293343         0.599907
 H         2.497665         0.257157         2.016390
 H         1.547177        -1.188297         1.908782
 H         4.290337        -1.059474         1.902587
 H         3.631654        -2.331451         0.724433
 H         5.152527        -0.592630        -0.644531
 H         2.169486         2.000986        -0.966045
 H         3.399516        -0.147681        -2.349947
