19
Iteration:  4801
 C         0.185588         0.509484         0.246233
 C         1.634020         0.044679         0.154084
 C         2.307585        -0.594172         1.398519
 C         3.675203        -1.150159         1.063078
 C         4.117405        -0.401954        -0.148168
 O         3.877401         0.969929         0.215276
 C         2.745576         1.033183        -0.582646
 C         3.005547        -0.266952        -1.382642
 O         1.727503        -0.847183        -1.082363
 H         0.040709         0.995520         1.270622
 H         0.041461         1.362094        -0.460467
 H        -0.566215        -0.202436        -0.154808
 H         2.304810         0.376025         1.964485
 H         1.610498        -1.247860         1.847639
 H         4.445941        -0.910827         1.801184
 H         3.660320        -2.116879         0.690265
 H         5.184082        -0.522514        -0.464005
 H         2.358575         1.956059        -0.884208
 H         3.202811        -0.520588        -2.390174
