19
Iteration:  4287charge 0 multiplicity 1
 C         0.231169         0.536546         0.253243
 C         1.617384         0.048895         0.095915
 C         2.161279        -0.681389         1.329842
 C         3.484131        -1.286095         1.070979
 C         4.161483        -0.364081        -0.120592
 O         4.085715         1.146542         0.033720
 C         2.702913         1.103620        -0.516626
 C         2.982573        -0.205952        -1.257713
 O         1.808449        -0.891695        -0.979285
 H         0.313065         1.412489         0.911437
 H        -0.335618         0.661979        -0.669180
 H        -0.416452        -0.329248         0.607516
 H         2.037329        -0.071562         2.266550
 H         1.439761        -1.494387         1.422371
 H         4.142703        -1.545328         1.978278
 H         3.347311        -2.253604         0.606782
 H         5.192923        -0.640679        -0.478414
 H         2.433365         1.893213        -1.205585
 H         3.469280        -0.292289        -2.243629
