19
Iteration:  1049
 C         0.173215         0.479223         0.193166
 C         1.620313         0.083222         0.138795
 C         2.285872        -0.456914         1.430007
 C         3.636367        -1.179295         0.962590
 C         4.107498        -0.398711        -0.200733
 O         3.909552         1.018409         0.241400
 C         2.693122         0.958526        -0.543983
 C         3.080627        -0.283667        -1.295321
 O         1.733699        -0.866500        -1.051003
 H        -0.091038         1.033079         1.144999
 H         0.034445         1.189395        -0.718116
 H        -0.436717        -0.468385         0.101938
 H         2.566399         0.446402         2.047814
 H         1.621923        -1.200669         1.848220
 H         4.387106        -1.331263         1.854911
 H         3.634778        -2.248201         0.701685
 H         5.157013        -0.604761        -0.554606
 H         2.421612         1.998046        -1.009961
 H         3.259499        -0.444880        -2.346910
