19
Iteration:  3349
 C         0.142114         0.546014         0.147251
 C         1.643247         0.065853         0.175684
 C         2.141180        -0.662650         1.449518
 C         3.589909        -1.227897         0.954622
 C         4.135660        -0.381853        -0.174620
 O         4.058204         1.055205         0.064718
 C         2.691332         1.032891        -0.392451
 C         3.043688        -0.182497        -1.357087
 O         1.816678        -0.893025        -0.947789
 H        -0.149593         1.153005         0.980709
 H        -0.020955         1.084529        -0.831111
 H        -0.364444        -0.438944         0.063821
 H         2.121650         0.155908         2.240732
 H         1.564543        -1.511168         1.730688
 H         4.390772        -1.501419         1.633199
 H         3.139596        -2.138547         0.485692
 H         5.125465        -0.563883        -0.411324
 H         2.318579         2.082897        -0.690655
 H         3.253645         0.032565        -2.376386
