19
Iteration:  1946charge 0 multiplicity 1
 C         0.178817         0.507342         0.317513
 C         1.598180         0.026682         0.123001
 C         2.119631        -0.634916         1.392319
 C         3.537426        -1.164882         0.976550
 C         4.145239        -0.392670        -0.187713
 O         4.007901         1.092588         0.096833
 C         2.746330         1.065100        -0.551530
 C         3.080000        -0.250502        -1.320538
 O         1.835533        -0.876356        -1.020427
 H        -0.007826         0.924008         1.349367
 H        -0.191301         1.136051        -0.379909
 H        -0.429959        -0.439835         0.294523
 H         2.122389         0.107488         2.206914
 H         1.493120        -1.428879         1.647938
 H         4.232761        -1.074080         1.815892
 H         3.453506        -2.236387         0.921183
 H         5.019119        -0.954609        -0.484611
 H         2.552564         2.173599        -0.934368
 H         3.413711        -0.308743        -2.333050
