19
Iteration:   371charge 0 multiplicity 1
 C         0.257495         0.574783         0.115278
 C         1.625600        -0.050222         0.156070
 C         2.111592        -0.744252         1.434741
 C         3.653392        -1.102038         1.114607
 C         4.063053        -0.373962        -0.131144
 O         4.053286         1.099738         0.019986
 C         2.716081         1.024975        -0.494594
 C         3.052481        -0.263224        -1.293658
 O         1.692772        -0.873894        -1.015402
 H         0.232275         1.481310         0.766602
 H         0.038568         1.060090        -0.845628
 H        -0.661171        -0.022871         0.306202
 H         2.037155         0.026814         2.255078
 H         1.566855        -1.643294         1.695471
 H         4.296478        -0.823320         1.962451
 H         3.937716        -2.210691         0.820929
 H         5.056929        -0.579968        -0.416821
 H         2.335664         1.977882        -0.872094
 H         3.480664        -0.446357        -2.235896
