19
Iteration:  3487
 C         0.191512         0.526198         0.158886
 C         1.639337        -0.044099         0.143591
 C         2.280181        -0.524803         1.422872
 C         3.694619        -1.245531         0.956193
 C         4.144366        -0.432907        -0.161693
 O         3.931371         1.030726         0.217664
 C         2.693149         0.998646        -0.447372
 C         3.004600        -0.157608        -1.328143
 O         1.693150        -0.846332        -1.046636
 H        -0.249426         1.343876         0.884864
 H         0.110468         1.165111        -0.783769
 H        -0.561999        -0.223071        -0.001036
 H         2.493877         0.311446         2.033077
 H         1.620787        -1.321183         1.919023
 H         4.432397        -1.242418         1.777936
 H         3.439457        -2.252128         0.586310
 H         5.190417        -0.744006        -0.627583
 H         2.309886         1.966757        -0.791389
 H         3.461745        -0.168350        -2.332749
