19
Iteration:   520charge 0 multiplicity 1
 C         0.268135         0.606499         0.221070
 C         1.617368        -0.002808         0.147295
 C         2.108137        -0.736347         1.384312
 C         3.579318        -1.136586         1.177137
 C         4.142869        -0.316015        -0.107500
 O         4.049258         1.103226        -0.023774
 C         2.643110         0.971855        -0.553649
 C         3.022652        -0.232109        -1.286355
 O         1.766632        -0.942374        -1.064836
 H         0.160840         1.291606         1.177739
 H         0.030824         1.258120        -0.613554
 H        -0.516162        -0.133983         0.286946
 H         2.119148        -0.170977         2.278578
 H         1.425458        -1.624884         1.579571
 H         4.322486        -0.810881         1.923021
 H         3.705017        -2.152347         0.986638
 H         5.244265        -0.599775        -0.302989
 H         2.396178         1.935728        -1.032945
 H         3.493637        -0.195079        -2.332745
