19
Iteration:  2335
 C         0.221154         0.564727         0.362484
 C         1.631543         0.077846         0.061361
 C         2.244603        -0.515009         1.335804
 C         3.611399        -1.176132         1.001143
 C         4.139243        -0.389484        -0.201095
 O         3.897811         0.986692         0.238948
 C         2.661701         0.985486        -0.525895
 C         3.031211        -0.175320        -1.353304
 O         1.818642        -0.968129        -1.097683
 H         0.167238         1.057771         1.300311
 H        -0.337510         1.054766        -0.426809
 H        -0.332802        -0.419195         0.467613
 H         2.164922         0.224688         2.099019
 H         1.471257        -1.340690         1.537230
 H         4.307746        -1.070375         1.858033
 H         3.615500        -2.234242         0.717780
 H         5.133734        -0.735614        -0.611328
 H         2.395109         2.042233        -0.657445
 H         3.477064        -0.116475        -2.386594
