19
Iteration:  2338charge 0 multiplicity 1
 C         0.220098         0.564204         0.339429
 C         1.632125         0.079512         0.071542
 C         2.246922        -0.556406         1.331339
 C         3.622905        -1.161101         1.001019
 C         4.146081        -0.378220        -0.194822
 O         3.896924         0.994876         0.263410
 C         2.650950         0.990066        -0.522788
 C         2.992398        -0.198051        -1.392605
 O         1.826669        -0.955843        -1.107733
 H         0.171846         1.184679         1.288743
 H        -0.255176         1.158184        -0.369508
 H        -0.296682        -0.393845         0.462902
 H         2.269611         0.258207         2.143222
 H         1.511704        -1.399432         1.694196
 H         4.337703        -0.947655         1.862658
 H         3.576786        -2.345003         0.716334
 H         5.116826        -0.783390        -0.532398
 H         2.406999         1.987609        -0.713425
 H         3.459372        -0.198782        -2.319065
