19
Iteration:  2234charge 0 multiplicity 1
 C         0.246744         0.632836         0.290545
 C         1.614750         0.013800         0.094993
 C         2.201346        -0.675980         1.337641
 C         3.666906        -1.189337         0.975792
 C         4.108236        -0.346821        -0.163177
 O         3.884958         1.071182         0.149192
 C         2.671825         0.932365        -0.510448
 C         3.044633        -0.228533        -1.299724
 O         1.787798        -0.899096        -1.021826
 H         0.314952         1.411262         1.026667
 H        -0.098552         1.044533        -0.736518
 H        -0.474298        -0.092190         0.597882
 H         2.318156         0.141077         2.056173
 H         1.720677        -1.529471         1.808194
 H         4.413116        -1.183442         1.770123
 H         3.502105        -2.221490         0.754149
 H         5.183630        -0.480416        -0.407902
 H         2.146517         1.891198        -0.939670
 H         3.567686        -0.169317        -2.348394
