19
Iteration:  4792charge 0 multiplicity 1
 C         0.157461         0.510542         0.251035
 C         1.558307         0.038375         0.049947
 C         2.243671        -0.594143         1.404539
 C         3.655518        -1.134557         1.048461
 C         4.137647        -0.438403        -0.215915
 O         3.928152         1.007405         0.164014
 C         2.747758         1.062380        -0.543084
 C         2.978406        -0.261250        -1.346227
 O         1.785503        -0.860004        -1.028743
 H         0.009903         0.691437         1.348332
 H        -0.004730         1.455076        -0.336758
 H        -0.610269        -0.217918         0.033356
 H         2.486998         0.170324         2.202732
 H         1.775110        -1.418332         1.915599
 H         4.306598        -1.007596         1.888828
 H         3.610980        -2.190767         0.988793
 H         5.218153        -0.482280        -0.326143
 H         2.761407         2.028456        -0.993747
 H         3.292367        -0.356453        -2.349798
