19
Iteration:  3445
 C         0.196450         0.540461         0.289444
 C         1.569077         0.052049         0.147305
 C         2.139740        -0.627594         1.313043
 C         3.556368        -1.212990         0.947905
 C         4.139692        -0.364311        -0.251908
 O         3.977792         1.052542         0.171797
 C         2.713897         1.035488        -0.527093
 C         3.094798        -0.188260        -1.287757
 O         1.837395        -0.933688        -0.943931
 H         0.223652         1.474336         0.863584
 H        -0.062534         0.928493        -0.701643
 H        -0.341421        -0.287709         0.641066
 H         2.041511         0.020564         2.138241
 H         1.495774        -1.506176         1.468820
 H         4.338965        -1.249341         1.676119
 H         3.404046        -2.185103         0.540222
 H         5.218599        -0.498425        -0.243087
 H         2.506137         1.948607        -0.905887
 H         3.229304        -0.138578        -2.363742
