19
Iteration:  1194charge 0 multiplicity 1
 C         0.159482         0.537683         0.193081
 C         1.572582         0.129062         0.163693
 C         2.197789        -0.686870         1.420525
 C         3.622072        -1.194399         0.980174
 C         4.177412        -0.315585        -0.150845
 O         4.017071         1.087947         0.098737
 C         2.763898         1.036836        -0.585364
 C         3.023883        -0.304365        -1.279190
 O         1.743839        -0.889508        -0.951351
 H        -0.061638         1.268388         0.917381
 H        -0.181932         0.830184        -0.783648
 H        -0.446351        -0.377384         0.283160
 H         2.191012        -0.109856         2.343123
 H         1.442706        -1.448624         1.513817
 H         4.303371        -1.355341         1.873371
 H         3.465505        -2.178674         0.629234
 H         5.201134        -0.494366        -0.407019
 H         2.438771         2.022062        -0.966091
 H         3.286839        -0.525955        -2.336442
