19
Iteration:  4515charge 0 multiplicity 1
 C         0.193118         0.574380         0.244328
 C         1.638025         0.024458         0.091311
 C         2.243891        -0.591353         1.390308
 C         3.616646        -1.091938         1.040912
 C         4.182071        -0.385672        -0.150411
 O         3.945945         0.944375         0.235763
 C         2.718984         0.935966        -0.516055
 C         3.025316        -0.287291        -1.287749
 O         1.708310        -0.797946        -1.172578
 H         0.000051         1.468609         0.802459
 H        -0.263374         0.588136        -0.713830
 H        -0.501995        -0.188102         0.692365
 H         2.451623         0.243318         2.116989
 H         1.710261        -1.284117         2.098250
 H         4.362875        -0.952535         1.850278
 H         3.666744        -2.128049         0.703581
 H         5.203978        -0.624312        -0.692242
 H         2.299035         1.894056        -0.869731
 H         3.200465        -0.277267        -2.425593
