19
Iteration:  4826charge 0 multiplicity 1
 C         0.220434         0.549985         0.216192
 C         1.586115         0.061616         0.114382
 C         2.286109        -0.613636         1.392878
 C         3.589853        -1.256528         0.979713
 C         4.154512        -0.417727        -0.178795
 O         3.918012         1.127632         0.157584
 C         2.701344         1.022952        -0.506860
 C         3.044543        -0.246583        -1.247309
 O         1.757721        -0.920975        -1.034189
 H         0.294397         1.230757         1.064889
 H        -0.166316         1.111527        -0.679246
 H        -0.467464        -0.279508         0.347592
 H         2.398840         0.234747         2.076784
 H         1.591358        -1.365348         1.842033
 H         4.297891        -1.189898         1.767791
 H         3.447596        -2.230858         0.567349
 H         5.211713        -0.413297        -0.431843
 H         2.371081         1.885084        -1.125703
 H         3.228386        -0.264408        -2.317098
