19
Iteration:  2895charge 0 multiplicity 1
 C         0.172547         0.524726         0.181267
 C         1.566665         0.017014         0.189060
 C         2.261369        -0.636748         1.391252
 C         3.585846        -1.186401         0.947140
 C         4.126527        -0.412582        -0.174460
 O         4.000412         1.075938         0.193986
 C         2.676090         0.933496        -0.524399
 C         3.089601        -0.176325        -1.315847
 O         1.768502        -0.829108        -1.039950
 H         0.011066         1.513130         0.822221
 H        -0.138407         0.853644        -0.816929
 H        -0.621098        -0.047789         0.713235
 H         2.432131         0.129477         2.171466
 H         1.455349        -1.380645         1.885728
 H         4.342212        -1.141265         1.895708
 H         3.569592        -2.267271         0.600363
 H         5.142025        -0.783266        -0.569812
 H         2.300283         1.893365        -0.839146
 H         3.477675        -0.248566        -2.328784
