19
Iteration:  4141
 C         0.193112         0.562182         0.284294
 C         1.561408        -0.049974         0.156219
 C         2.191563        -0.568072         1.376480
 C         3.704707        -1.224286         1.029785
 C         4.197032        -0.388765        -0.116916
 O         4.002336         1.070255         0.208557
 C         2.713834         0.981877        -0.474922
 C         3.009941        -0.218367        -1.351754
 O         1.701526        -0.881619        -1.236269
 H         0.341671         1.559485         0.688535
 H        -0.237953         0.885640        -0.666689
 H        -0.423826         0.011912         0.929934
 H         2.249219         0.308562         2.006707
 H         1.402460        -1.234356         1.895395
 H         4.149911        -0.942014         1.941091
 H         3.648729        -2.346824         0.812760
 H         5.190415        -0.591800        -0.530183
 H         2.228477         1.916683        -0.787507
 H         3.346674        -0.497097        -2.363577
