19
Iteration:  2406
 C         0.197556         0.489837         0.236624
 C         1.590005         0.046054         0.103905
 C         2.126145        -0.694228         1.386338
 C         3.572669        -1.171515         0.913642
 C         4.095503        -0.438777        -0.265084
 O         4.037625         1.065672         0.184726
 C         2.634321         1.072264        -0.520649
 C         3.078949        -0.134677        -1.316222
 O         1.892899        -0.855036        -0.889532
 H         0.190926         1.307183         0.994529
 H        -0.335284         0.834855        -0.719097
 H        -0.349386        -0.313016         0.661359
 H         2.153742         0.065376         2.274798
 H         1.519534        -1.603701         1.587584
 H         4.365046        -1.146059         1.711960
 H         3.472146        -2.366854         0.641152
 H         5.089820        -0.572707        -0.664033
 H         2.218514         2.011989        -0.965410
 H         3.267041        -0.382192        -2.376990
