19
Iteration:  1493charge 0 multiplicity 1
 C         0.240307         0.605580         0.250492
 C         1.600415        -0.014421         0.116215
 C         2.189176        -0.581115         1.344172
 C         3.607305        -1.116886         1.051748
 C         4.153897        -0.408241        -0.180796
 O         3.877602         1.056277         0.211077
 C         2.706696         0.947264        -0.561784
 C         3.066365        -0.303397        -1.287058
 O         1.794032        -0.895796        -1.083938
 H         0.359443         1.522922         0.860457
 H        -0.292088         1.042998        -0.634642
 H        -0.373442        -0.109038         0.736357
 H         2.392888         0.162069         2.040808
 H         1.495351        -1.348937         1.651774
 H         4.325119        -1.125517         1.836689
 H         3.561431        -2.209028         0.817127
 H         5.217541        -0.468950        -0.439510
 H         2.337919         1.869160        -1.062200
 H         3.471806        -0.225985        -2.310321
