19
Iteration:  2935
 C         0.196866         0.568593         0.387799
 C         1.641589         0.058017         0.051113
 C         2.200395        -0.621889         1.286528
 C         3.541926        -1.205160         0.982583
 C         4.115059        -0.393264        -0.171789
 O         3.927845         1.048934         0.225094
 C         2.671483         1.019014        -0.591424
 C         3.145326        -0.238910        -1.326553
 O         1.808174        -0.877981        -1.015357
 H         0.288663         1.398974         1.071330
 H        -0.291705         0.971855        -0.591952
 H        -0.381294        -0.357113         0.620219
 H         2.291321         0.108289         2.138575
 H         1.585080        -1.389667         1.654874
 H         4.164248        -1.193014         1.829773
 H         3.480486        -2.247343         0.710381
 H         5.131487        -0.646024        -0.434489
 H         2.295657         1.952650        -1.090607
 H         3.523901        -0.341698        -2.355519
