19
Iteration:   851charge 0 multiplicity 1
 C         0.214814         0.660350         0.211314
 C         1.624043        -0.004674         0.122442
 C         2.157011        -0.685619         1.306288
 C         3.727690        -1.044191         1.063411
 C         4.154190        -0.429875        -0.218529
 O         3.903080         0.966938         0.157850
 C         2.709272         0.971185        -0.465312
 C         2.967329        -0.233778        -1.391412
 O         1.782574        -0.902556        -0.985363
 H         0.118857         0.788199         1.287446
 H         0.088199         1.541721        -0.358001
 H        -0.507295        -0.059691        -0.046756
 H         1.986419        -0.128665         2.241612
 H         1.682789        -1.684818         1.533897
 H         4.190372        -0.271317         1.742056
 H         3.811672        -2.052475         1.118391
 H         5.248968        -0.552581        -0.342125
 H         2.519665         2.046808        -0.732091
 H         3.250716        -0.238657        -2.419074
