19
Iteration:  1932
 C         0.161513         0.473847         0.264357
 C         1.606548         0.051635         0.141664
 C         2.162700        -0.704304         1.346314
 C         3.549029        -1.194952         1.055273
 C         4.098754        -0.376255        -0.122291
 O         4.136169         1.148520         0.032491
 C         2.765051         1.029726        -0.525279
 C         3.023663        -0.226977        -1.277901
 O         1.737455        -0.882924        -1.025535
 H         0.071314         1.059922         1.206891
 H         0.061339         1.261813        -0.574674
 H        -0.689121        -0.251677         0.257049
 H         2.190329        -0.046178         2.236809
 H         1.441805        -1.594725         1.598217
 H         4.193668        -1.145117         1.933869
 H         3.613026        -2.165089         0.500963
 H         5.213690        -0.292424        -0.328759
 H         2.155948         1.964235        -0.921716
 H         3.384045        -0.443183        -2.281672
