19
Iteration:   896
 C         0.148030         0.450462         0.314894
 C         1.628917         0.104807         0.080794
 C         2.179326        -0.605906         1.395114
 C         3.509862        -1.236566         0.978553
 C         4.213645        -0.388042        -0.168146
 O         3.990997         1.101577         0.107630
 C         2.720934         1.015816        -0.612896
 C         3.091637        -0.223684        -1.297197
 O         1.790713        -0.871813        -0.969835
 H        -0.075380         0.995598         1.176151
 H        -0.252661         0.950914        -0.575160
 H        -0.387077        -0.495658         0.303714
 H         2.467350         0.204986         2.120435
 H         1.379797        -1.155836         1.918696
 H         4.072214        -1.408224         1.936880
 H         3.265390        -2.046802         0.381135
 H         5.286291        -0.529206        -0.287784
 H         2.469376         2.091182        -0.840207
 H         3.379066        -0.455224        -2.307496
