19
Iteration:  2399
 C         0.190659         0.526656         0.261442
 C         1.601635         0.061232         0.152248
 C         2.083415        -0.723291         1.376051
 C         3.558703        -1.209606         0.868899
 C         4.142095        -0.344897        -0.232758
 O         4.020342         1.099319         0.157294
 C         2.708922         1.072818        -0.520053
 C         3.037747        -0.148918        -1.348293
 O         1.883631        -0.927017        -0.864949
 H         0.074612         1.342597         0.945705
 H        -0.104257         0.746366        -0.847972
 H        -0.553655        -0.280770         0.589034
 H         2.177627        -0.206346         2.285807
 H         1.525951        -1.597771         1.563507
 H         4.292568        -1.147713         1.649884
 H         3.442588        -2.201299         0.740449
 H         5.092900        -0.721347        -0.645351
 H         2.358023         2.101931        -0.885185
 H         3.373205        -0.367266        -2.431005
