19
Iteration:  1127
 C         0.212794         0.638804         0.272983
 C         1.644436         0.095006         0.058120
 C         2.220291        -0.597294         1.307167
 C         3.688086        -1.211557         1.032105
 C         4.159952        -0.434519        -0.187133
 O         3.835046         1.032808         0.225102
 C         2.660648         0.987969        -0.556183
 C         3.086377        -0.282029        -1.292715
 O         1.753103        -0.921310        -1.043284
 H         0.392101         1.417828         0.927659
 H        -0.377304         0.864798        -0.656510
 H        -0.383391        -0.192878         0.640990
 H         2.228663         0.181055         2.109559
 H         1.606271        -1.377639         1.679028
 H         4.279110        -0.680758         1.892363
 H         3.862532        -2.245874         1.075921
 H         5.186429        -0.517834        -0.510847
 H         2.409495         1.998746        -1.034766
 H         3.325259        -0.365681        -2.319319
