19
Iteration:  4841
 C         0.107503         0.564425         0.288714
 C         1.600773        -0.008251         0.147823
 C         2.156190        -0.616262         1.358361
 C         3.572815        -1.212034         0.915748
 C         4.134059        -0.297277        -0.136418
 O         4.019889         1.074347         0.138551
 C         2.703401         1.038272        -0.596181
 C         3.033452        -0.230732        -1.362688
 O         1.899834        -0.932357        -0.923178
 H         0.085671         1.428228         0.938004
 H        -0.217013         0.846014        -0.706770
 H        -0.719216        -0.101811         0.653650
 H         2.432957         0.085621         2.132117
 H         1.495343        -1.430338         1.787906
 H         4.185722        -1.500950         1.831680
 H         3.339043        -2.235473         0.354646
 H         5.129808        -0.704212        -0.423266
 H         2.358185         2.158439        -0.694457
 H         3.517609        -0.445397        -2.375856
