19
Iteration:  2401charge 0 multiplicity 1
 C         0.195701         0.519458         0.249731
 C         1.593198         0.056528         0.129750
 C         2.088342        -0.714643         1.382460
 C         3.563576        -1.198341         0.873133
 C         4.126628        -0.376394        -0.236129
 O         4.029139         1.091397         0.167213
 C         2.682136         1.077708        -0.524257
 C         3.053905        -0.138465        -1.347890
 O         1.889045        -0.903876        -0.861608
 H         0.109739         1.324812         0.977797
 H        -0.129894         0.725043        -0.747586
 H        -0.517362        -0.298186         0.613366
 H         2.173008        -0.135787         2.263002
 H         1.508587        -1.662612         1.586625
 H         4.323995        -1.159722         1.648213
 H         3.440358        -2.211437         0.753130
 H         5.113614        -0.690907        -0.700018
 H         2.325056         2.025059        -0.902165
 H         3.341505        -0.392413        -2.371694
