19
Iteration:   591charge 0 multiplicity 1
 C         0.243435         0.490758         0.148359
 C         1.608722        -0.051920         0.113396
 C         2.291041        -0.494471         1.454304
 C         3.605021        -1.136555         1.047009
 C         4.093212        -0.368879        -0.156579
 O         3.979243         1.025771         0.234170
 C         2.677124         0.995416        -0.572401
 C         3.047319        -0.268458        -1.292248
 O         1.700972        -0.889035        -1.101907
 H         0.352603         1.528074         0.585693
 H        -0.139836         0.706945        -0.935501
 H        -0.590300        -0.091417         0.674691
 H         2.622507         0.479701         2.066306
 H         1.717144        -1.123687         2.107389
 H         4.335270        -1.141059         1.846301
 H         3.347519        -2.198605         0.620502
 H         5.061369        -0.667425        -0.442769
 H         2.286109         1.955666        -0.911566
 H         3.346954        -0.403734        -2.301322
