19
Iteration:  3990charge 0 multiplicity 1
 C         0.233394         0.624815         0.247458
 C         1.550432        -0.034145         0.181051
 C         2.138394        -0.731349         1.365693
 C         3.513349        -1.184091         0.927005
 C         4.149269        -0.297830        -0.116343
 O         4.053375         1.131465         0.109551
 C         2.729663         1.035120        -0.551927
 C         3.109703        -0.241080        -1.249539
 O         1.764368        -0.918261        -1.011293
 H         0.245457         1.304400         1.138736
 H        -0.087831         0.890927        -0.825301
 H        -0.587353        -0.082216         0.472841
 H         2.317191        -0.033527         2.148190
 H         1.456520        -1.574758         1.729328
 H         4.152718        -1.458005         1.743249
 H         3.423074        -2.158150         0.347119
 H         5.147088        -0.531308        -0.643565
 H         2.384652         2.039379        -0.758608
 H         3.392953        -0.632207        -2.236021
