19
Iteration:  4976charge 0 multiplicity 1
 C         0.120604         0.578282         0.188248
 C         1.609803         0.060511         0.114439
 C         2.270537        -0.610287         1.363602
 C         3.690486        -1.242522         0.930530
 C         4.143069        -0.400180        -0.179023
 O         3.968091         1.111275         0.168723
 C         2.704060         1.017889        -0.465404
 C         2.990879        -0.303468        -1.282875
 O         1.743070        -0.888584        -0.984472
 H        -0.221176         0.607610         1.246118
 H        -0.042160         1.528287        -0.402081
 H        -0.362589        -0.327467        -0.186271
 H         2.358341         0.351772         2.009415
 H         1.539988        -1.178515         1.877633
 H         4.541341        -1.293765         1.729176
 H         3.381993        -2.295067         0.622240
 H         5.231482        -0.456467        -0.355102
 H         2.507752         1.945986        -0.935673
 H         3.347340        -0.419829        -2.259155
