19
Iteration:  3068
 C         0.237763         0.579897         0.353622
 C         1.589140         0.114802         0.086785
 C         2.136558        -0.626349         1.288762
 C         3.526209        -1.289462         0.925196
 C         4.188653        -0.378575        -0.244770
 O         3.936989         1.098196         0.216248
 C         2.677481         1.078104        -0.558874
 C         3.103371        -0.273404        -1.284233
 O         1.885050        -0.918515        -0.948578
 H         0.126616         1.390751         1.044902
 H        -0.373844         0.837165        -0.517464
 H        -0.474249        -0.247529         0.570509
 H         2.291826         0.118488         2.071808
 H         1.565687        -1.469111         1.581031
 H         4.122644        -1.273951         1.831750
 H         3.301838        -2.285928         0.612295
 H         5.201002        -0.644471        -0.519980
 H         2.219424         1.888587        -1.123177
 H         3.378600        -0.417394        -2.301804
