19
Iteration:  1780
 C         0.252256         0.604730         0.148110
 C         1.574044        -0.006781         0.127725
 C         2.273893        -0.648903         1.373698
 C         3.680149        -1.163609         1.132218
 C         4.162306        -0.388770        -0.120963
 O         3.918085         1.040103         0.101598
 C         2.638321         0.993558        -0.430550
 C         2.987565        -0.221811        -1.324470
 O         1.735448        -0.901903        -1.081542
 H         0.071038         1.064320         1.122797
 H         0.096544         1.355388        -0.642912
 H        -0.546355        -0.174327        -0.007203
 H         2.319218         0.278290         1.908473
 H         1.620481        -1.248836         1.950867
 H         4.596896        -1.171219         1.705666
 H         3.650600        -2.269815         0.841559
 H         5.166016        -0.750926        -0.556975
 H         2.333209         2.105026        -0.849124
 H         3.423534        -0.196750        -2.335683
