19
Iteration:  2696charge 0 multiplicity 1
 C         0.156345         0.520690         0.376630
 C         1.620819         0.118998         0.135540
 C         2.143791        -0.557540         1.289978
 C         3.586623        -1.212288         0.928242
 C         4.201940        -0.392942        -0.120089
 O         3.923581         1.061578         0.203331
 C         2.687368         1.015779        -0.578166
 C         3.099995        -0.252976        -1.361887
 O         1.840915        -0.931600        -1.020631
 H         0.169652         1.326993         1.139353
 H        -0.242546         0.982688        -0.415139
 H        -0.526075        -0.303278         0.719534
 H         2.263484         0.119633         2.200947
 H         1.316144        -1.334466         1.472308
 H         4.289524        -1.454652         1.848651
 H         3.469299        -2.167148         0.334363
 H         5.295053        -0.579834        -0.374322
 H         2.544295         1.958542        -1.124716
 H         3.244831        -0.276515        -2.438745
