19
Iteration:  4746charge 0 multiplicity 1
 C         0.156449         0.503011         0.206304
 C         1.663801         0.016063         0.135281
 C         2.141184        -0.647889         1.471252
 C         3.558746        -1.283854         0.999430
 C         4.142237        -0.367032        -0.146442
 O         4.053920         1.154213         0.079020
 C         2.738488         1.054420        -0.673275
 C         3.059981        -0.211982        -1.281478
 O         1.741717        -0.860858        -0.936621
 H         0.092687         0.916516         1.280588
 H        -0.136202         1.249289        -0.571187
 H        -0.607278        -0.339941         0.224809
 H         2.209667         0.084087         2.351188
 H         1.504003        -1.469039         1.734289
 H         4.299503        -1.458314         1.808060
 H         3.509942        -2.214341         0.543201
 H         5.205628        -0.495910        -0.556128
 H         2.356744         1.960613        -1.009920
 H         3.323552        -0.445356        -2.289408
