19
Iteration:  1178
 C         0.205527         0.615174         0.240052
 C         1.689972         0.039896         0.181094
 C         2.166981        -0.762745         1.310752
 C         3.588862        -1.229218         1.028073
 C         4.123686        -0.375838        -0.061344
 O         3.980181         1.223738        -0.026654
 C         2.645556         0.961521        -0.565267
 C         3.077397        -0.279070        -1.204892
 O         1.777496        -0.866081        -0.973381
 H         0.271713         1.436444         1.055160
 H         0.134546         1.142497        -0.740800
 H        -0.551772        -0.152605         0.456317
 H         1.977226        -0.166822         2.250432
 H         1.548108        -1.667869         1.559404
 H         4.155059        -1.218091         1.931472
 H         3.541263        -2.223263         0.451622
 H         5.166607        -0.662945        -0.398225
 H         2.202060         1.797393        -1.173810
 H         3.473965        -0.409440        -2.205718
