19
Iteration:  1620
 C         0.206818         0.594817         0.251605
 C         1.639971         0.042150         0.083976
 C         2.230982        -0.653076         1.342219
 C         3.583403        -1.216585         1.069400
 C         4.116296        -0.369117        -0.082157
 O         3.920945         1.112453         0.144059
 C         2.657045         0.996853        -0.599035
 C         3.086716        -0.314188        -1.257903
 O         1.768488        -0.887652        -1.084116
 H         0.266239         1.104576         1.247919
 H         0.123020         1.271567        -0.542518
 H        -0.746404        -0.031810         0.234722
 H         2.287397         0.237161         2.114151
 H         1.657099        -1.462750         1.844532
 H         4.406179        -1.021931         1.866121
 H         3.816910        -2.237651         0.840649
 H         5.100758        -0.573758        -0.467803
 H         2.267637         1.851171        -1.179755
 H         3.546156        -0.476683        -2.289927
