19
Iteration:  4081
 C         0.194053         0.538383         0.144707
 C         1.597866         0.053453         0.160945
 C         2.240733        -0.642683         1.405986
 C         3.543815        -1.282874         0.879030
 C         4.094129        -0.361441        -0.126665
 O         4.036390         1.129346         0.149714
 C         2.738580         1.070709        -0.560185
 C         2.987920        -0.205854        -1.271468
 O         1.800787        -0.905095        -0.914504
 H         0.116294         1.095708         1.065580
 H        -0.138186         0.979399        -0.769236
 H        -0.520191        -0.327761         0.247999
 H         2.530509         0.142740         2.181339
 H         1.548464        -1.319687         1.805712
 H         4.148860        -1.572815         1.784467
 H         3.453273        -2.201308         0.345572
 H         5.064651        -0.762742        -0.397160
 H         2.279192         1.969949        -1.014192
 H         3.376137        -0.393494        -2.269784
