19
Iteration:  2313charge 0 multiplicity 1
 C         0.136590         0.415103         0.352148
 C         1.591072         0.084530         0.109649
 C         2.195259        -0.608504         1.349323
 C         3.505465        -1.225875         0.931577
 C         4.166545        -0.374528        -0.161406
 O         4.022554         1.096782         0.150801
 C         2.726632         1.049547        -0.580488
 C         3.035883        -0.234340        -1.332859
 O         1.842278        -0.826961        -0.992254
 H         0.159890         1.025992         1.217546
 H        -0.355190         0.959063        -0.481912
 H        -0.489259        -0.492922         0.533972
 H         2.394102         0.201401         2.029964
 H         1.493317        -1.356725         1.866075
 H         4.180424        -1.254850         1.807630
 H         3.342617        -2.288239         0.561121
 H         5.203080        -0.773686        -0.349446
 H         2.510158         2.049666        -1.043405
 H         3.453341        -0.423292        -2.368489
