19
Iteration:  4337
 C         0.204551         0.679682         0.181073
 C         1.612358         0.082429         0.043746
 C         2.219245        -0.548668         1.272485
 C         3.708240        -1.217660         0.969187
 C         4.164232        -0.433267        -0.208169
 O         3.820462         0.954502         0.261689
 C         2.656938         1.047876        -0.471553
 C         3.054860        -0.298803        -1.276158
 O         1.811367        -0.939016        -0.954129
 H         0.387625         1.418422         0.942284
 H        -0.342476         1.090388        -0.686354
 H        -0.489024        -0.034256         0.533506
 H         2.355845         0.154104         2.039801
 H         1.467199        -1.331987         1.611300
 H         4.442990        -1.043108         1.662488
 H         3.810238        -2.335288         0.794003
 H         5.165125        -0.505691        -0.618612
 H         2.275421         2.048830        -0.714347
 H         3.384418        -0.228452        -2.281543
