19
Iteration:  4369
 C         0.174456         0.495984         0.220113
 C         1.612671         0.068253         0.122278
 C         2.165514        -0.626299         1.554186
 C         3.533883        -1.272879         0.993763
 C         4.123641        -0.412793        -0.114413
 O         4.022663         1.152548         0.046838
 C         2.791610         1.057172        -0.579528
 C         3.052441        -0.240009        -1.280098
 O         1.798692        -0.881842        -1.055626
 H         0.021747         1.083122         1.122604
 H        -0.153437         1.136167        -0.606913
 H        -0.468919        -0.312504         0.437359
 H         2.283104         0.128482         2.258909
 H         1.377196        -1.348294         1.835239
 H         4.175133        -1.648936         1.670772
 H         3.209989        -2.110093         0.328912
 H         5.112598        -0.729912        -0.292972
 H         2.347792         1.928843        -1.077775
 H         3.524302        -0.059537        -2.206308
