19
Iteration:  1919charge 0 multiplicity 1
 C         0.186235         0.592663         0.201982
 C         1.602460         0.033588         0.170106
 C         2.172678        -0.777158         1.346035
 C         3.655300        -1.198180         1.042176
 C         4.228246        -0.302684        -0.051202
 O         4.055853         1.139556         0.023126
 C         2.689771         1.006886        -0.519390
 C         2.959646        -0.265307        -1.276758
 O         1.718389        -0.844951        -1.006925
 H        -0.060285         1.181928         1.072154
 H        -0.161323         1.174166        -0.790964
 H        -0.383799        -0.333634         0.139612
 H         2.153643        -0.085170         2.219364
 H         1.488577        -1.703215         1.638644
 H         4.230521        -1.369392         1.983362
 H         3.592531        -2.234976         0.616215
 H         5.086781        -0.863145        -0.465703
 H         2.418319         1.943422        -0.955186
 H         3.334292        -0.264823        -2.344429
