19
Iteration:  1830
 C         0.144881         0.419132         0.247854
 C         1.591754         0.135009         0.129264
 C         2.260281        -0.537576         1.329506
 C         3.498554        -1.345275         1.008980
 C         4.162858        -0.350000        -0.111691
 O         4.009822         1.118122         0.138227
 C         2.753519         1.081979        -0.620315
 C         3.056448        -0.259364        -1.309621
 O         1.798720        -0.839276        -0.939626
 H        -0.111900         1.184440         0.979456
 H        -0.335052         0.628937        -0.792422
 H        -0.301134        -0.460247         0.698521
 H         2.415911         0.045591         2.278081
 H         1.350851        -1.249343         1.506965
 H         4.212169        -1.607885         1.802849
 H         3.432737        -2.241567         0.424190
 H         5.073118        -0.693060        -0.544284
 H         2.489321         2.030726        -0.922400
 H         3.239120        -0.586909        -2.365556
