19
Iteration:  2117charge 0 multiplicity 1
 C         0.121376         0.509475         0.230608
 C         1.592387         0.139049         0.138316
 C         2.252907        -0.628480         1.432697
 C         3.504623        -1.226357         0.878775
 C         4.160752        -0.373280        -0.197314
 O         4.011123         1.082060         0.146871
 C         2.631491         1.086436        -0.621785
 C         3.081381        -0.199673        -1.291889
 O         1.873193        -0.980120        -0.880284
 H         0.000199         1.023355         1.256054
 H        -0.251786         1.189053        -0.604060
 H        -0.598311        -0.409273         0.246853
 H         2.334640         0.150752         2.225058
 H         1.511077        -1.461665         1.761462
 H         4.276867        -1.449680         1.653121
 H         3.389054        -2.301757         0.471771
 H         5.228714        -0.541512        -0.541940
 H         2.426623         2.077527        -0.922258
 H         3.415460        -0.363514        -2.313778
