19
Iteration:  4647charge 0 multiplicity 1
 C         0.135146         0.511399         0.274389
 C         1.571955         0.148912         0.172769
 C         2.170155        -0.707183         1.336282
 C         3.554398        -1.171145         0.961994
 C         4.116938        -0.435529        -0.171389
 O         4.026393         1.117013         0.157118
 C         2.798978         1.099883        -0.581264
 C         3.105428        -0.307139        -1.276796
 O         1.724417        -0.894926        -1.032605
 H         0.150245         1.418240         0.956589
 H        -0.241931         0.779411        -0.724616
 H        -0.440331        -0.292477         0.838677
 H         2.420461        -0.071837         2.271342
 H         1.491608        -1.508632         1.659429
 H         4.299337        -0.896895         1.773998
 H         3.680840        -2.204004         0.796504
 H         5.235888        -0.656666        -0.421666
 H         2.541861         2.030166        -1.096305
 H         3.425830        -0.589602        -2.313107
