19
Iteration:   135charge 0 multiplicity 1
 C         0.169071         0.545463         0.057699
 C         1.548774         0.021288         0.151278
 C         2.259619        -0.603423         1.522284
 C         3.691324        -1.174971         1.147879
 C         4.132897        -0.421887        -0.080310
 O         4.013088         1.067964         0.030030
 C         2.766786         1.023472        -0.534456
 C         2.951928        -0.278125        -1.284818
 O         1.698341        -0.856118        -1.083741
 H        -0.116675         1.135525         0.837899
 H         0.071057         1.054194        -0.972072
 H        -0.504902        -0.361201         0.032662
 H         2.297352         0.255491         2.173310
 H         1.631306        -1.316888         2.003072
 H         4.390459        -0.909628         2.022485
 H         3.647261        -2.192625         0.973480
 H         5.192471        -0.640416        -0.455279
 H         2.490621         1.975338        -0.833217
 H         3.286814        -0.503232        -2.353229
