19
Iteration:  4449
 C         0.244281         0.669804         0.198141
 C         1.576159        -0.071198         0.107677
 C         2.225359        -0.672508         1.386366
 C         3.611038        -1.233612         1.017217
 C         4.152502        -0.331388        -0.142685
 O         4.015093         1.159177         0.152407
 C         2.673244         0.992285        -0.531671
 C         2.990127        -0.244494        -1.284260
 O         1.760359        -0.941361        -1.045044
 H         0.307984         1.340864         1.026984
 H        -0.105991         1.118244        -0.702696
 H        -0.499783        -0.136056         0.372375
 H         2.212210         0.173650         2.101733
 H         1.617444        -1.413393         1.968221
 H         4.162778        -1.395862         1.954446
 H         3.397733        -2.238020         0.601866
 H         5.221895        -0.610781        -0.458860
 H         2.210984         1.904634        -0.939266
 H         3.412519        -0.306610        -2.326406
