19
Iteration:  3567charge 0 multiplicity 1
 C         0.177735         0.605946         0.281976
 C         1.648534        -0.023491         0.082763
 C         2.281773        -0.654589         1.322302
 C         3.651754        -1.222279         1.069613
 C         4.134498        -0.424457        -0.207466
 O         3.951537         1.048362         0.255734
 C         2.668593         1.022784        -0.468769
 C         2.966567        -0.204041        -1.361492
 O         1.762159        -0.833462        -1.138680
 H         0.273869         1.382663         1.097470
 H        -0.054816         1.032357        -0.779021
 H        -0.622435        -0.152657         0.547479
 H         2.194779         0.142822         2.093758
 H         1.704411        -1.429525         1.756573
 H         4.335961        -1.103633         1.891739
 H         3.530905        -2.288297         1.004439
 H         5.201076        -0.591677        -0.493200
 H         2.422937         1.952258        -0.894602
 H         3.255209        -0.353904        -2.400442
