19
Iteration:  3226charge 0 multiplicity 1
 C         0.126620         0.578132         0.153140
 C         1.595733         0.083647         0.141804
 C         2.179909        -0.654304         1.324708
 C         3.618147        -1.226149         0.911157
 C         4.153857        -0.420479        -0.261598
 O         4.028798         1.081751         0.186990
 C         2.700372         1.118203        -0.452511
 C         2.990325        -0.245636        -1.253494
 O         1.841895        -0.899607        -0.887545
 H         0.186978         1.317785         0.973449
 H        -0.150124         0.892411        -0.872884
 H        -0.533021        -0.236031         0.352635
 H         2.097384        -0.163867         2.298057
 H         1.508886        -1.605548         1.315073
 H         4.376180        -1.183222         1.730313
 H         3.494661        -2.275624         0.503445
 H         5.204285        -0.805553        -0.397555
 H         2.359804         2.122388        -0.756049
 H         3.164861        -0.543656        -2.361855
