19
Iteration:  4563
 C         0.213538         0.496535         0.233147
 C         1.652627         0.164944         0.196775
 C         2.126548        -0.553181         1.374775
 C         3.488975        -1.222440         0.875270
 C         4.155746        -0.338135        -0.204795
 O         4.017864         1.071611         0.176145
 C         2.732842         0.967993        -0.590505
 C         3.088877        -0.256365        -1.351886
 O         1.799439        -0.923235        -0.872345
 H        -0.091500         0.929495         1.191051
 H        -0.175703         1.103328        -0.588785
 H        -0.328956        -0.400589         0.165888
 H         2.285660        -0.005415         2.320803
 H         1.446873        -1.321670         1.627577
 H         4.217936        -1.376917         1.714579
 H         3.280475        -2.188547         0.396264
 H         5.186237        -0.411873        -0.354919
 H         2.407222         1.909740        -1.047075
 H         3.206739        -0.491527        -2.347377
