19
Iteration:   669charge 0 multiplicity 1
 C         0.259848         0.626851         0.282096
 C         1.595109        -0.026897         0.030828
 C         2.213238        -0.565766         1.339185
 C         3.663699        -1.168154         1.118847
 C         4.130625        -0.414504        -0.119468
 O         3.895009         1.027001         0.148271
 C         2.630186         0.937163        -0.562559
 C         3.031997        -0.247373        -1.301626
 O         1.816864        -0.885174        -1.116648
 H         0.275016         0.859280         1.307495
 H        -0.005628         1.543453        -0.421199
 H        -0.695673         0.002327         0.298153
 H         2.381244         0.415005         1.943626
 H         1.721989        -1.228312         2.017744
 H         4.247700        -0.803990         1.975346
 H         3.623735        -2.311427         0.993488
 H         5.163373        -0.650036        -0.352665
 H         2.272688         1.861047        -1.046344
 H         3.342983        -0.430925        -2.350168
