19
Iteration:  4429charge 0 multiplicity 1
 C         0.172527         0.532765         0.213466
 C         1.658797         0.115172         0.117434
 C         2.305824        -0.536601         1.364382
 C         3.667007        -1.221756         1.000751
 C         4.090381        -0.426508        -0.201294
 O         3.848398         0.933761         0.235656
 C         2.680266         1.000656        -0.549854
 C         3.048290        -0.250588        -1.330660
 O         1.779506        -0.844092        -1.036044
 H         0.052182         1.248582         1.063227
 H         0.060997         1.124742        -0.698572
 H        -0.584825        -0.301155         0.096624
 H         2.549268         0.325610         2.166146
 H         1.488149        -1.102861         1.840599
 H         4.310471        -0.914564         1.974568
 H         3.751116        -2.329399         0.940055
 H         5.233225        -0.558203        -0.392291
 H         2.332340         2.037975        -0.770679
 H         3.294953        -0.302161        -2.458305
