19
Iteration:   795
 C         0.198392         0.488378         0.272102
 C         1.634350         0.040862         0.142866
 C         2.250125        -0.528528         1.390091
 C         3.548534        -1.266464         0.929919
 C         4.164542        -0.347089        -0.111757
 O         3.951715         1.068628         0.176645
 C         2.650863         1.006858        -0.621390
 C         3.120643        -0.269262        -1.291942
 O         1.747936        -0.849353        -1.035752
 H         0.039772         1.387439         0.942825
 H        -0.193189         0.761957        -0.641985
 H        -0.363317        -0.309796         0.639726
 H         2.361764         0.350532         1.991742
 H         1.570722        -1.285932         1.894562
 H         4.146292        -1.632588         1.793589
 H         3.195172        -2.175552         0.507347
 H         5.278169        -0.442826        -0.250249
 H         2.495621         1.984802        -1.025830
 H         3.481070        -0.413580        -2.298243
