19
Iteration:  2410
 C         0.184869         0.478653         0.228928
 C         1.607072         0.048273         0.111983
 C         2.177913        -0.654735         1.386800
 C         3.579051        -1.194154         0.961205
 C         4.083427        -0.450026        -0.284633
 O         4.025273         1.042776         0.189967
 C         2.622791         1.064089        -0.508952
 C         3.071692        -0.153805        -1.287102
 O         1.881892        -0.838391        -0.949343
 H         0.227043         1.280305         0.948474
 H        -0.431582         0.917144        -0.665370
 H        -0.328592        -0.416231         0.732119
 H         2.148760         0.044091         2.158624
 H         1.520831        -1.452713         1.596927
 H         4.304936        -1.111773         1.738072
 H         3.547188        -2.158464         0.597548
 H         5.138750        -0.564956        -0.549535
 H         2.206153         2.034408        -0.953779
 H         3.252044        -0.272342        -2.421292
