19
Iteration:  3667charge 0 multiplicity 1
 C         0.207280         0.542765         0.345340
 C         1.617189         0.051018         0.041607
 C         2.170096        -0.496016         1.248837
 C         3.562193        -1.225431         0.963368
 C         4.101621        -0.405630        -0.241648
 O         3.993128         0.904940         0.290487
 C         2.666617         1.023701        -0.476700
 C         3.057719        -0.193668        -1.338132
 O         1.848827        -0.842938        -1.055558
 H         0.184276         0.798985         1.420633
 H        -0.300042         1.099645        -0.535868
 H        -0.319868        -0.529547         0.302382
 H         2.585054         0.284845         1.976863
 H         1.563319        -1.139205         1.868807
 H         4.217765        -0.799925         1.730435
 H         3.440049        -2.297201         1.024867
 H         5.118013        -0.630987        -0.578149
 H         2.251312         2.058878        -0.696199
 H         3.214651        -0.173956        -2.460395
