19
Iteration:  4233charge 0 multiplicity 1
 C         0.235529         0.556811         0.190908
 C         1.641712         0.017250         0.118463
 C         2.311854        -0.508491         1.357067
 C         3.615662        -1.294322         1.048419
 C         4.054446        -0.398103        -0.083254
 O         3.923868         1.018840         0.200564
 C         2.730176         1.043596        -0.503874
 C         2.951387        -0.184714        -1.392189
 O         1.728765        -0.932202        -1.093516
 H        -0.112517         0.980158         1.168112
 H         0.102822         1.319774        -0.564821
 H        -0.294579        -0.439609         0.049827
 H         2.648225         0.386952         1.958354
 H         1.642185        -1.008849         2.023939
 H         4.422367        -1.039690         1.801562
 H         3.586271        -2.277998         0.729840
 H         5.084664        -0.598796        -0.478562
 H         2.312692         2.031342        -0.717274
 H         3.684242        -0.301676        -2.185915
