19
Iteration:   146charge 0 multiplicity 1
 C         0.123861         0.471747         0.046570
 C         1.645467         0.073944         0.181267
 C         2.136098        -0.561905         1.458971
 C         3.604410        -1.182909         1.101366
 C         4.164374        -0.394230        -0.159681
 O         4.127083         1.112207         0.029336
 C         2.740269         0.974493        -0.511121
 C         2.990494        -0.277907        -1.268152
 O         1.701700        -0.866238        -0.955142
 H        -0.193158         1.154561         0.752918
 H        -0.082529         0.970296        -0.959929
 H        -0.483032        -0.464342         0.117988
 H         2.286055         0.183103         2.220735
 H         1.520075        -1.346296         1.841754
 H         4.428343        -1.134663         1.891577
 H         3.553369        -2.194733         0.864635
 H         5.226182        -0.703104        -0.465358
 H         2.327443         1.817100        -0.955394
 H         3.315651        -0.224727        -2.356997
