19
Iteration:  4802charge 0 multiplicity 1
 C         0.189312         0.512419         0.245408
 C         1.641991         0.043552         0.161749
 C         2.309199        -0.589785         1.394862
 C         3.679623        -1.156290         1.061242
 C         4.117045        -0.393866        -0.142971
 O         3.877540         0.970689         0.221209
 C         2.738675         1.027274        -0.588909
 C         3.010723        -0.268151        -1.385203
 O         1.721011        -0.846917        -1.085419
 H         0.014258         1.005117         1.254528
 H         0.052993         1.366242        -0.478238
 H        -0.539269        -0.210647        -0.132596
 H         2.296060         0.378363         1.966356
 H         1.585968        -1.223100         1.839663
 H         4.440453        -0.927932         1.784808
 H         3.664581        -2.109515         0.698934
 H         5.159135        -0.553390        -0.491113
 H         2.303296         1.930494        -0.859776
 H         3.219978        -0.515790        -2.380512
