19
Iteration:  1373charge 0 multiplicity 1
 C         0.142626         0.463697         0.277769
 C         1.616720         0.166097         0.114535
 C         2.191991        -0.491116         1.352107
 C         3.504797        -1.275625         0.917765
 C         4.190771        -0.369226        -0.129271
 O         3.970291         1.061746         0.150707
 C         2.731610         1.114552        -0.596184
 C         3.044060        -0.268097        -1.323804
 O         1.887713        -0.984600        -0.906085
 H         0.056381         1.279830         1.074853
 H        -0.322925         0.882025        -0.620308
 H        -0.215552        -0.524392         0.537015
 H         2.292642         0.354215         2.135418
 H         1.376327        -1.234217         1.557302
 H         4.005865        -1.555294         1.841060
 H         3.179328        -2.301206         0.457158
 H         5.261161        -0.623114        -0.346697
 H         2.311104         1.948627        -1.118354
 H         3.280471        -0.314169        -2.454965
