19
Iteration:  4517charge 0 multiplicity 1
 C         0.182878         0.565330         0.247942
 C         1.636774         0.018420         0.091265
 C         2.240993        -0.593923         1.394763
 C         3.606294        -1.108757         1.054126
 C         4.200224        -0.378617        -0.159915
 O         3.956164         0.951924         0.233139
 C         2.705518         0.922004        -0.504063
 C         3.029777        -0.287744        -1.312252
 O         1.707002        -0.790038        -1.169823
 H         0.011820         1.490645         0.807367
 H        -0.256799         0.620714        -0.717822
 H        -0.491240        -0.181858         0.647294
 H         2.472881         0.294303         2.108465
 H         1.702373        -1.179996         2.103480
 H         4.393627        -0.930887         1.882965
 H         3.651024        -2.140543         0.738369
 H         5.178340        -0.654256        -0.692930
 H         2.287731         1.867381        -0.887774
 H         3.224284        -0.192578        -2.419701
