19
Iteration:  3075
 C         0.155852         0.625387         0.329271
 C         1.634153         0.081887         0.074759
 C         2.199984        -0.612850         1.267876
 C         3.560830        -1.282438         0.925325
 C         4.147415        -0.370715        -0.216736
 O         3.926551         1.088343         0.247364
 C         2.721071         0.993012        -0.521056
 C         3.060147        -0.234366        -1.331902
 O         1.849223        -0.954865        -0.958798
 H         0.043833         1.496690         1.006026
 H        -0.185731         1.057575        -0.708152
 H        -0.365753        -0.342876         0.697370
 H         2.274220         0.175904         2.114259
 H         1.483546        -1.383255         1.659334
 H         4.191421        -1.108484         1.805437
 H         3.535992        -2.392941         0.685398
 H         5.211070        -0.450493        -0.517997
 H         2.357235         2.054811        -0.940342
 H         3.306497        -0.416215        -2.419021
