19
Iteration:  4635charge 0 multiplicity 1
 C         0.178325         0.561209         0.305274
 C         1.625282         0.086760         0.069884
 C         2.178936        -0.599133         1.347370
 C         3.632289        -1.193209         1.055363
 C         4.098382        -0.400588        -0.186118
 O         3.998317         0.965704         0.145671
 C         2.683398         1.036483        -0.570106
 C         3.028795        -0.205206        -1.324790
 O         1.821502        -0.887983        -1.020060
 H         0.028952         1.347653         1.103224
 H        -0.349198         0.947302        -0.598730
 H        -0.472244        -0.372740         0.560294
 H         2.072890         0.107039         2.228319
 H         1.443830        -1.436571         1.515951
 H         4.290106        -0.845256         1.887812
 H         3.700607        -2.273152         0.987780
 H         5.158259        -0.764229        -0.489795
 H         2.524351         2.091054        -0.828437
 H         3.399629        -0.254879        -2.415300
