19
Iteration:  1642charge 0 multiplicity 1
 C         0.249255         0.596106         0.214595
 C         1.663103         0.043022         0.143800
 C         2.106447        -0.669300         1.400727
 C         3.521162        -1.206810         1.029638
 C         4.172947        -0.317335        -0.110395
 O         3.977957         1.163003         0.055856
 C         2.689788         0.955075        -0.550591
 C         3.069924        -0.217350        -1.320550
 O         1.812763        -0.968735        -0.986797
 H         0.198394         1.302580         1.085345
 H        -0.059992         0.988254        -0.709060
 H        -0.492236        -0.240285         0.439030
 H         2.068075         0.189279         2.192510
 H         1.463215        -1.506240         1.757971
 H         4.312320        -1.538022         1.767067
 H         3.315232        -2.166614         0.557247
 H         5.176368        -0.602431        -0.369309
 H         2.282452         1.907716        -0.824326
 H         3.432582        -0.411735        -2.362608
