19
Iteration:  2443charge 0 multiplicity 1
 C         0.163764         0.457877         0.296523
 C         1.610365        -0.036481         0.107578
 C         2.303584        -0.560831         1.376210
 C         3.638843        -1.238097         1.026687
 C         4.184564        -0.352633        -0.152408
 O         3.947762         1.076696         0.302297
 C         2.723687         1.005281        -0.564685
 C         3.031415        -0.282785        -1.357893
 O         1.666200        -0.767186        -1.189827
 H         0.071829         1.097741         1.192769
 H        -0.320341         0.986088        -0.632138
 H        -0.517681        -0.467242         0.536897
 H         2.544952         0.363190         1.853007
 H         1.697553        -1.019652         2.108655
 H         4.302225        -1.333505         1.875087
 H         3.550753        -2.178022         0.562302
 H         5.265448        -0.630415        -0.324457
 H         2.300578         1.983217        -0.989572
 H         3.419098        -0.431291        -2.441536
