19
Iteration:  1502charge 0 multiplicity 1
 C         0.221916         0.640292         0.260012
 C         1.610601         0.095791         0.060164
 C         2.240691        -0.558755         1.343917
 C         3.622083        -1.167505         0.987949
 C         4.138422        -0.375996        -0.173481
 O         3.833139         0.971970         0.262924
 C         2.667982         0.946995        -0.560443
 C         3.086377        -0.273202        -1.335043
 O         1.823754        -0.946525        -1.039745
 H         0.190118         1.470223         1.001741
 H        -0.129775         0.708201        -0.713341
 H        -0.415045        -0.144104         0.690497
 H         2.312376         0.227239         2.019929
 H         1.510514        -1.179064         1.820555
 H         4.425520        -0.895556         1.754895
 H         3.485104        -2.196550         0.941180
 H         5.178839        -0.557894        -0.383578
 H         2.399186         2.022955        -0.973414
 H         3.488197        -0.333287        -2.400028
