19
Iteration:  3572
 C         0.181250         0.638097         0.260686
 C         1.648614        -0.017123         0.083900
 C         2.271134        -0.625929         1.349548
 C         3.637294        -1.229695         1.023962
 C         4.132147        -0.444575        -0.269911
 O         3.914951         1.034352         0.242815
 C         2.676294         0.992606        -0.426824
 C         2.968019        -0.183097        -1.342604
 O         1.798379        -0.846530        -1.116240
 H         0.312966         1.313942         1.073744
 H        -0.023202         0.883268        -0.723266
 H        -0.563155        -0.088697         0.559333
 H         2.090254         0.173348         2.087648
 H         1.673227        -1.503635         1.779668
 H         4.308370        -0.948782         1.901282
 H         3.698821        -2.375842         1.043206
 H         5.212485        -0.552875        -0.341534
 H         2.422124         2.070412        -0.817833
 H         3.291007        -0.313298        -2.410527
