19
Iteration:  4709
 C         0.235364         0.573054         0.214372
 C         1.582635        -0.009482         0.047730
 C         2.227350        -0.478801         1.420044
 C         3.666554        -1.167673         0.947000
 C         4.185937        -0.351136        -0.267739
 O         3.925880         0.934453         0.322356
 C         2.651031         1.008822        -0.487373
 C         3.027766        -0.236014        -1.391388
 O         1.766618        -0.954191        -0.994616
 H         0.415764         1.532620         0.650844
 H        -0.255308         0.845715        -0.731044
 H        -0.509115        -0.023360         0.777854
 H         2.349798         0.338744         2.060549
 H         1.502686        -1.200270         1.893627
 H         4.350075        -1.179016         1.793024
 H         3.295186        -2.192114         0.633189
 H         5.237957        -0.452668        -0.415741
 H         2.259359         1.996588        -0.880972
 H         3.369726        -0.198073        -2.485878
