19
Iteration:  4678charge 0 multiplicity 1
 C         0.212513         0.559380         0.227607
 C         1.608999         0.125467         0.129284
 C         2.208905        -0.653526         1.388301
 C         3.562054        -1.270341         0.966152
 C         4.171436        -0.356806        -0.091858
 O         3.978744         1.045403         0.062334
 C         2.631222         1.087917        -0.510683
 C         3.093749        -0.219508        -1.293915
 O         1.780193        -0.927012        -1.007067
 H         0.269692         1.618925         0.625153
 H        -0.302298         0.409455        -0.749586
 H        -0.410283        -0.047337         1.035235
 H         2.363731        -0.012098         2.280785
 H         1.404558        -1.392404         1.670946
 H         4.250639        -1.461181         1.829775
 H         3.403756        -2.279236         0.540674
 H         5.289953        -0.549239        -0.244538
 H         2.245540         2.039086        -0.922728
 H         3.491960        -0.261690        -2.404238
