19
Iteration:  3648charge 0 multiplicity 1
 C         0.141229         0.467570         0.311436
 C         1.645675         0.070932         0.099039
 C         2.213254        -0.551945         1.401095
 C         3.561644        -1.247467         0.932426
 C         4.118011        -0.441300        -0.169225
 O         3.956165         1.040554         0.235229
 C         2.793364         1.067984        -0.513365
 C         3.043439        -0.183092        -1.363493
 O         1.777341        -0.869330        -1.092575
 H         0.212417         1.127140         1.193249
 H        -0.189199         1.048394        -0.537841
 H        -0.533718        -0.409317         0.524433
 H         2.394494         0.236033         2.136341
 H         1.509976        -1.351613         1.740512
 H         4.258381        -1.321461         1.781522
 H         3.222666        -2.238287         0.496684
 H         5.118203        -0.662080        -0.454514
 H         2.642004         2.155166        -0.821675
 H         3.445184        -0.287013        -2.390480
