19
Iteration:  1263charge 0 multiplicity 1
 C         0.181237         0.457548         0.270476
 C         1.642034         0.115500         0.153560
 C         2.185591        -0.554709         1.364674
 C         3.510649        -1.275593         0.936152
 C         4.172133        -0.360162        -0.113776
 O         3.963115         1.120491         0.093203
 C         2.732552         1.087285        -0.627782
 C         3.088889        -0.314300        -1.248681
 O         1.786643        -0.869183        -0.942473
 H        -0.086295         1.175843         1.130504
 H        -0.276157         0.900698        -0.578844
 H        -0.524904        -0.394001         0.306031
 H         2.435400         0.240737         2.188524
 H         1.570895        -1.441516         1.758720
 H         4.179767        -1.579695         1.736316
 H         3.362338        -2.335546         0.502396
 H         5.195522        -0.602018        -0.459358
 H         2.438236         1.900136        -1.198489
 H         3.569691        -0.515841        -2.283215
