19
Iteration:   214
 C         0.217295         0.607104         0.185112
 C         1.595202        -0.029257         0.078888
 C         2.250260        -0.558054         1.425817
 C         3.665992        -1.162203         1.156685
 C         4.155436        -0.310244        -0.040051
 O         3.915165         1.091295         0.147363
 C         2.655221         0.881944        -0.541813
 C         3.039898        -0.368980        -1.284813
 O         1.703689        -0.902320        -1.230185
 H         0.541782         1.426384         0.926266
 H         0.030581         1.112089        -0.723004
 H        -0.536267         0.039304         0.671968
 H         2.448883         0.364755         1.952409
 H         1.531973        -1.125685         2.060760
 H         4.380688        -1.232233         2.058506
 H         3.668180        -2.145154         0.563501
 H         5.227703        -0.387275        -0.372126
 H         2.423376         1.901832        -0.891688
 H         3.436426        -0.480674        -2.358591
