19
Iteration:  2066charge 0 multiplicity 1
 C         0.169509         0.539550         0.294048
 C         1.589696         0.040900         0.037633
 C         2.288158        -0.655946         1.384885
 C         3.751500        -1.141034         1.107307
 C         4.078091        -0.411054        -0.119916
 O         3.909722         1.044856         0.164541
 C         2.697990         0.930106        -0.542782
 C         3.009714        -0.290633        -1.290315
 O         1.737757        -0.784915        -1.168803
 H         0.234501         1.395631         1.052834
 H        -0.006611         1.018883        -0.578505
 H        -0.577763        -0.225261         0.655209
 H         2.153614         0.177247         2.132388
 H         1.644521        -1.454672         1.681777
 H         4.492024        -0.990314         1.856957
 H         3.917218        -2.169842         0.934930
 H         5.026065        -0.401262        -0.582127
 H         2.300583         1.917825        -0.976929
 H         3.450992        -0.344375        -2.237101
