19
Iteration:  2370
 C         0.227244         0.628169         0.184221
 C         1.593561         0.021319         0.163743
 C         2.229366        -0.734950         1.361696
 C         3.717385        -1.242846         0.970144
 C         4.177326        -0.323104        -0.119783
 O         3.953566         1.133494         0.116714
 C         2.608635         0.997677        -0.489251
 C         3.004864        -0.218423        -1.259319
 O         1.733769        -0.882758        -1.035704
 H         0.117425         1.456339         0.925404
 H         0.031814         1.031477        -0.735081
 H        -0.499029        -0.178439         0.389687
 H         2.297309        -0.139133         2.305318
 H         1.648064        -1.699782         1.676259
 H         4.438505        -1.361219         1.837931
 H         3.447852        -2.302795         0.536165
 H         5.125008        -0.727507        -0.554719
 H         2.227412         1.885435        -0.896343
 H         3.481267        -0.276098        -2.190826
