19
Iteration:   517charge 0 multiplicity 1
 C         0.246501         0.599710         0.227937
 C         1.600530        -0.012099         0.148055
 C         2.142721        -0.711295         1.397287
 C         3.611120        -1.130933         1.179869
 C         4.118691        -0.317771        -0.112914
 O         4.036906         1.079620        -0.014428
 C         2.669086         0.975106        -0.550333
 C         3.031515        -0.230855        -1.276701
 O         1.751401        -0.924231        -1.077578
 H         0.166324         1.294312         0.999160
 H         0.042110         1.276543        -0.697506
 H        -0.516124        -0.222506         0.168221
 H         2.116707        -0.151087         2.344644
 H         1.474493        -1.572795         1.512928
 H         4.371030        -0.840459         1.959914
 H         3.696358        -2.268222         1.001348
 H         5.182862        -0.580541        -0.308119
 H         2.382706         1.937655        -1.013199
 H         3.443392        -0.195682        -2.331303
