19
Iteration:  2613
 C         0.178466         0.554154         0.148548
 C         1.626161         0.048782         0.156697
 C         2.302417        -0.648242         1.326190
 C         3.668475        -1.248679         1.004750
 C         4.138491        -0.333202        -0.231094
 O         3.943837         1.015180         0.252026
 C         2.682509         1.040312        -0.491022
 C         2.991393        -0.160155        -1.346880
 O         1.747479        -0.911921        -0.969029
 H         0.023966         1.145992         1.109748
 H        -0.131614         1.048857        -0.865584
 H        -0.540273        -0.258444         0.235110
 H         2.435470         0.173124         2.131767
 H         1.523258        -1.331562         1.764214
 H         4.307477        -1.268131         1.886105
 H         3.517577        -2.318191         0.783032
 H         5.137932        -0.442583        -0.714489
 H         2.469785         2.024559        -0.908248
 H         3.156949        -0.235438        -2.423422
