19
Iteration:  1770
 C         0.258786         0.613883         0.169193
 C         1.626998        -0.004679         0.130539
 C         2.238930        -0.618591         1.387902
 C         3.705389        -1.198857         1.039615
 C         4.139095        -0.369530        -0.124772
 O         3.901769         1.068318         0.111842
 C         2.656411         0.946764        -0.539170
 C         3.035670        -0.247817        -1.234301
 O         1.697337        -0.886308        -1.063791
 H         0.054442         1.121373         1.143831
 H         0.200531         1.364746        -0.599483
 H        -0.511468        -0.204674        -0.070248
 H         2.439751         0.065866         2.216369
 H         1.626729        -1.406026         1.729461
 H         4.204128        -1.056628         2.052579
 H         3.713428        -2.259510         0.624771
 H         5.257693        -0.482737        -0.347094
 H         2.248539         2.015484        -0.847372
 H         3.256198        -0.299215        -2.295029
