19
Iteration:  3717
 C         0.216935         0.550533         0.204381
 C         1.623206         0.091679         0.199122
 C         2.176422        -0.705111         1.291777
 C         3.552573        -1.279148         0.933588
 C         4.157704        -0.368106        -0.143424
 O         3.990049         1.118906         0.092926
 C         2.713640         1.074093        -0.493583
 C         3.064711        -0.210309        -1.239822
 O         1.742698        -0.897914        -0.912567
 H         0.097213         1.266326         1.017183
 H         0.272838         1.209327        -0.667771
 H        -0.495166        -0.190567         0.081099
 H         2.467275        -0.287854         2.264063
 H         1.449902        -1.592562         1.282721
 H         4.228034        -1.456590         1.809037
 H         3.378033        -2.181520         0.269078
 H         5.250636        -0.662172        -0.262102
 H         2.334578         1.895872        -1.057860
 H         3.245252        -0.147141        -2.310694
