19
Iteration:   201charge 0 multiplicity 1
 C         0.266390         0.568708         0.246781
 C         1.613431        -0.006348         0.094555
 C         2.296333        -0.452981         1.348093
 C         3.578270        -1.187925         1.018377
 C         4.144331        -0.373372        -0.037967
 O         3.853062         1.055487         0.168079
 C         2.670515         0.947317        -0.581410
 C         3.090272        -0.355024        -1.214707
 O         1.748032        -0.889162        -1.164433
 H         0.234446         1.366890         0.880363
 H        -0.176764         0.906858        -0.733447
 H        -0.491662        -0.172869         0.569268
 H         2.521094         0.475335         1.863266
 H         1.681250        -1.079600         1.990116
 H         4.229881        -1.223467         1.941512
 H         3.378579        -2.177478         0.762267
 H         5.258953        -0.586743        -0.210461
 H         2.203011         1.763486        -1.061177
 H         3.640315        -0.393593        -2.221900
