19
Iteration:  1416charge 0 multiplicity 1
 C         0.197455         0.540138         0.133642
 C         1.588899         0.048578         0.123955
 C         2.286069        -0.515748         1.401135
 C         3.662560        -1.189196         1.070711
 C         4.163798        -0.417969        -0.157014
 O         3.924457         1.007919         0.199343
 C         2.661182         0.956748        -0.516582
 C         2.948538        -0.234692        -1.313824
 O         1.780527        -0.899230        -1.076615
 H        -0.082646         1.177981         1.055892
 H         0.014997         1.250802        -0.676216
 H        -0.542876        -0.264661         0.155178
 H         2.606660         0.343823         2.054339
 H         1.617077        -1.146887         2.024793
 H         4.468633        -1.029293         1.792067
 H         3.444384        -2.298617         0.806345
 H         5.218499        -0.573614        -0.520605
 H         2.517411         2.028120        -0.839982
 H         3.367691        -0.259774        -2.392912
