19
Iteration:   282
 C         0.122992         0.477017         0.109349
 C         1.561081         0.052275         0.163576
 C         2.199886        -0.609492         1.439686
 C         3.611665        -1.176160         1.075829
 C         4.131048        -0.396152        -0.097626
 O         4.053818         1.081963         0.014909
 C         2.732135         1.017236        -0.522498
 C         3.036665        -0.265207        -1.254875
 O         1.786242        -0.845268        -1.029363
 H        -0.025875         1.325657         0.967525
 H         0.050573         0.984739        -0.794722
 H        -0.570474        -0.329200         0.272429
 H         2.335670         0.152921         2.230612
 H         1.526556        -1.340928         1.974716
 H         4.207567        -1.013386         2.010588
 H         3.432539        -2.319694         0.768533
 H         5.082622        -0.784556        -0.438835
 H         2.303359         1.859905        -1.141907
 H         3.490078        -0.286789        -2.255112
