19
Iteration:  2255charge 0 multiplicity 1
 C         0.199661         0.571085         0.226652
 C         1.593872         0.058043         0.153471
 C         2.262113        -0.594835         1.420608
 C         3.599267        -1.186674         0.927456
 C         4.112357        -0.337190        -0.308916
 O         3.952835         1.006355         0.268759
 C         2.658369         1.040562        -0.442296
 C         2.972096        -0.191393        -1.391843
 O         1.846204        -1.062124        -1.015905
 H         0.113740         1.471789         0.954024
 H        -0.036801         1.194678        -0.810189
 H        -0.551680        -0.172484         0.424430
 H         2.188057         0.303472         2.102777
 H         1.538354        -1.201193         1.890945
 H         4.417608        -1.027520         1.611864
 H         3.590606        -2.212108         0.829904
 H         5.181042        -0.536544        -0.536127
 H         2.609337         2.229471        -0.680974
 H         3.406517        -0.257654        -2.523762
