19
Iteration:  4916charge 0 multiplicity 1
 C         0.179979         0.587548         0.322484
 C         1.598381         0.010759         0.116482
 C         2.234763        -0.610230         1.251151
 C         3.667540        -1.179523         1.047876
 C         4.132547        -0.376587        -0.209989
 O         3.929801         1.003553         0.231903
 C         2.668427         1.003611        -0.497810
 C         3.042362        -0.201671        -1.323159
 O         1.799165        -0.891164        -1.068998
 H         0.171116         1.579488         0.712441
 H        -0.212041         0.592558        -0.671155
 H        -0.591216        -0.023144         0.775871
 H         2.305011         0.209981         1.931239
 H         1.725615        -1.501908         1.750960
 H         4.393916        -0.959176         1.788221
 H         3.475855        -2.245176         0.928612
 H         5.152539        -0.687297        -0.426741
 H         2.342796         1.935346        -1.112131
 H         3.300907        -0.280224        -2.439232
