19
Iteration:  4142charge 0 multiplicity 1
 C         0.198082         0.559638         0.281544
 C         1.573639        -0.042544         0.163445
 C         2.185063        -0.564767         1.375856
 C         3.700344        -1.213392         1.025703
 C         4.201441        -0.391195        -0.106242
 O         4.003056         1.062309         0.205804
 C         2.701000         0.974215        -0.481702
 C         3.009062        -0.220704        -1.354896
 O         1.699500        -0.875253        -1.239690
 H         0.352965         1.544280         0.690102
 H        -0.262913         0.892599        -0.666373
 H        -0.440938        -0.005966         0.931988
 H         2.258029         0.283766         2.009797
 H         1.427727        -1.265374         1.905723
 H         4.183342        -0.963777         1.935537
 H         3.646127        -2.310985         0.821477
 H         5.194103        -0.575683        -0.526781
 H         2.238063         1.891257        -0.759112
 H         3.355365        -0.474145        -2.324109
