19
Iteration:  3287charge 0 multiplicity 1
 C         0.243391         0.577583         0.348203
 C         1.579676         0.044590         0.086516
 C         2.168126        -0.547291         1.306448
 C         3.588510        -1.192046         0.919910
 C         4.140836        -0.396078        -0.194565
 O         3.927859         0.975582         0.344006
 C         2.677880         1.001485        -0.542235
 C         3.079797        -0.233882        -1.359150
 O         1.831381        -0.930436        -1.123581
 H         0.102882         1.326439         1.143347
 H        -0.213369         1.111547        -0.431913
 H        -0.490549        -0.138525         0.791729
 H         2.253397         0.386001         1.882083
 H         1.540016        -1.166948         1.928854
 H         4.350303        -0.988409         1.683437
 H         3.734766        -2.239605         0.733384
 H         5.236268        -0.544892        -0.286015
 H         2.372911         1.930924        -1.015144
 H         3.242877        -0.232439        -2.413719
