19
Iteration:  1319charge 0 multiplicity 1
 C         0.331641         0.645107         0.173395
 C         1.627128        -0.111786         0.110128
 C         2.264738        -0.684870         1.371667
 C         3.719365        -1.115272         1.182460
 C         4.074608        -0.386997        -0.110980
 O         3.941875         1.046282         0.063561
 C         2.620432         0.986282        -0.405455
 C         2.997244        -0.248407        -1.355494
 O         1.705263        -0.863253        -1.157608
 H         0.366711         1.430862         0.992455
 H         0.043395         1.083155        -0.790042
 H        -0.484517         0.037690         0.585900
 H         1.979810         0.089507         2.193995
 H         1.575543        -1.463966         1.863236
 H         4.267369        -0.623627         1.909251
 H         3.740316        -2.239002         0.988712
 H         5.121220        -0.691430        -0.362194
 H         2.064722         1.703857        -0.769393
 H         3.364263        -0.042259        -2.377674
