19
Iteration:  4730charge 0 multiplicity 1
 C         0.173744         0.579639         0.239628
 C         1.571109         0.115911         0.173871
 C         2.302121        -0.621718         1.347981
 C         3.633672        -1.264184         0.991315
 C         4.104621        -0.393849        -0.144542
 O         3.938320         1.103295         0.152413
 C         2.677351         1.022682        -0.506091
 C         3.033732        -0.303763        -1.299216
 O         1.811130        -0.894787        -1.035350
 H        -0.053097         1.359140         0.916850
 H        -0.037977         0.935069        -0.775946
 H        -0.471120        -0.286565         0.267939
 H         2.537035         0.162028         2.021640
 H         1.524466        -1.241829         1.867620
 H         4.338444        -1.181721         1.815856
 H         3.420648        -2.353376         0.652464
 H         5.072740        -0.698203        -0.466260
 H         2.334955         1.949139        -1.102784
 H         3.402739        -0.367042        -2.374522
