19
Iteration:  4753charge 0 multiplicity 1
 C         0.198559         0.492828         0.241123
 C         1.583136         0.053908         0.173050
 C         2.155334        -0.652136         1.451105
 C         3.497062        -1.208603         0.972804
 C         4.207538        -0.319327        -0.097468
 O         4.027130         1.119382         0.011680
 C         2.806111         1.067209        -0.600499
 C         3.043219        -0.254787        -1.304225
 O         1.772408        -0.889871        -0.946750
 H         0.093459         0.782944         1.263532
 H        -0.225919         1.242200        -0.400944
 H        -0.380227        -0.441502         0.025670
 H         2.121117        -0.070635         2.328177
 H         1.468336        -1.536388         1.589615
 H         4.192168        -1.280379         1.819220
 H         3.273244        -2.229735         0.475957
 H         5.103347        -0.737221        -0.505199
 H         2.398195         2.082263        -0.910243
 H         3.294265        -0.397050        -2.427960
