19
Iteration:  3308charge 0 multiplicity 1
 C         0.136096         0.540014         0.293027
 C         1.630592         0.113303         0.067532
 C         2.274063        -0.578877         1.340371
 C         3.565681        -1.250031         1.018461
 C         4.144218        -0.374999        -0.210545
 O         3.887208         1.007800         0.209163
 C         2.739957         1.025475        -0.521309
 C         3.099575        -0.217459        -1.336801
 O         1.805307        -0.885227        -1.025791
 H        -0.036813         1.186670         1.098509
 H        -0.268424         1.122958        -0.488790
 H        -0.456119        -0.387791         0.477953
 H         2.391617         0.107026         2.226345
 H         1.477878        -1.252525         1.612307
 H         4.255111        -1.492220         1.835040
 H         3.440803        -2.224469         0.532734
 H         5.159169        -0.625113        -0.414897
 H         2.519533         2.056686        -0.938970
 H         3.371694        -0.312687        -2.356166
