19
Iteration:   523
 C         0.284232         0.621685         0.226962
 C         1.633569         0.011977         0.143558
 C         2.072637        -0.771643         1.368303
 C         3.552025        -1.123996         1.160464
 C         4.172732        -0.329165        -0.104771
 O         4.054950         1.132133        -0.026354
 C         2.629540         0.976791        -0.555149
 C         3.022609        -0.244365        -1.307256
 O         1.787261        -0.958813        -1.046564
 H         0.183175         1.198324         1.258258
 H         0.022192         1.250503        -0.566592
 H        -0.546129        -0.072766         0.423595
 H         2.068124        -0.099190         2.271577
 H         1.425998        -1.625481         1.628191
 H         4.219162        -0.795196         1.931398
 H         3.739072        -2.168437         0.938848
 H         5.198410        -0.617621        -0.301555
 H         2.350139         1.912754        -1.024087
 H         3.473490        -0.225935        -2.260278
