19
Iteration:  4069
 C         0.134226         0.534154         0.197132
 C         1.574619         0.033666         0.134503
 C         2.274529        -0.561156         1.395849
 C         3.574464        -1.295014         0.973502
 C         4.113385        -0.382111        -0.143725
 O         4.010306         1.019839         0.079714
 C         2.626989         1.052515        -0.456125
 C         3.068423        -0.221499        -1.225230
 O         1.814429        -0.870071        -1.050726
 H        -0.122091         1.187396         1.015680
 H         0.119498         1.237820        -0.624013
 H        -0.626128        -0.296543         0.096635
 H         2.602334         0.185294         2.167067
 H         1.620265        -1.210032         1.901510
 H         4.391460        -1.248653         1.713458
 H         3.425422        -2.250923         0.548231
 H         5.153214        -0.538872        -0.438221
 H         2.497210         2.052360        -0.796644
 H         3.358305        -0.216673        -2.232177
