19
Iteration:   462charge 0 multiplicity 1
 C         0.141309         0.443035         0.186392
 C         1.593593         0.092665         0.116959
 C         2.252952        -0.448494         1.440957
 C         3.464772        -1.193975         0.963770
 C         4.106957        -0.424441        -0.181679
 O         3.985554         1.061328         0.150491
 C         2.705760         1.049789        -0.546623
 C         3.076298        -0.235056        -1.314079
 O         1.921937        -0.938723        -0.956301
 H         0.143150         1.176101         0.921961
 H        -0.262582         0.792564        -0.856598
 H        -0.400801        -0.512938         0.490248
 H         2.575860         0.416563         2.071511
 H         1.461477        -1.010056         1.930839
 H         4.132641        -1.673642         1.716099
 H         2.881474        -2.093256         0.542045
 H         5.161800        -0.736747        -0.328481
 H         2.360604         2.033360        -0.893969
 H         3.350062        -0.524892        -2.359594
