19
Iteration:  1935
 C         0.161622         0.473114         0.277543
 C         1.588480         0.032850         0.155472
 C         2.150079        -0.677728         1.348522
 C         3.532310        -1.199118         1.047385
 C         4.093603        -0.378720        -0.153545
 O         4.115326         1.142500         0.041517
 C         2.781627         1.066346        -0.522089
 C         3.064437        -0.245435        -1.287052
 O         1.750849        -0.888467        -1.030968
 H         0.149000         1.051374         1.241498
 H         0.027582         1.161790        -0.447648
 H        -0.657825        -0.286755         0.210424
 H         2.189239        -0.078935         2.264487
 H         1.477982        -1.440347         1.553014
 H         4.241111        -1.061037         1.854202
 H         3.556450        -2.178504         0.580725
 H         5.174573        -0.418322        -0.294427
 H         2.158754         1.985184        -0.914132
 H         3.379029        -0.424823        -2.288718
