19
Iteration:   343
 C         0.094342         0.548005         0.233937
 C         1.644538         0.144851         0.130458
 C         2.146409        -0.562663         1.372305
 C         3.533921        -1.251526         0.979197
 C         4.161173        -0.374279        -0.073110
 O         4.001496         1.134190         0.045392
 C         2.731799         1.004520        -0.576261
 C         3.116749        -0.304448        -1.302360
 O         1.828907        -0.946585        -0.927123
 H         0.032597         1.275391         1.053382
 H        -0.356309         1.042095        -0.726161
 H        -0.500268        -0.372940         0.483114
 H         2.170251         0.028966         2.285655
 H         1.509882        -1.454392         1.477178
 H         4.103468        -1.506936         1.876674
 H         3.408931        -2.133148         0.455972
 H         5.279991        -0.485220        -0.244340
 H         2.370084         1.913941        -1.069011
 H         3.568549        -0.530365        -2.326666
