19
Iteration:  1786charge 0 multiplicity 1
 C         0.170206         0.585338         0.163154
 C         1.615826        -0.024825         0.101559
 C         2.261369        -0.620278         1.414728
 C         3.675574        -1.164721         1.092549
 C         4.114042        -0.414637        -0.176527
 O         4.004171         1.036249         0.160502
 C         2.647099         1.028696        -0.444142
 C         2.949473        -0.224831        -1.380604
 O         1.788552        -0.908356        -1.079928
 H        -0.010783         1.071864         1.141619
 H         0.168521         1.331804        -0.697800
 H        -0.624604        -0.136219         0.139894
 H         2.288080         0.408584         1.917724
 H         1.631409        -1.336129         2.081709
 H         4.482982        -1.007190         1.890918
 H         3.480886        -2.215152         0.988446
 H         5.081463        -0.608750        -0.557796
 H         2.184829         1.888401        -0.753298
 H         3.447017        -0.198685        -2.365314
