19
Iteration:  4838
 C         0.107517         0.548521         0.268076
 C         1.615736        -0.009247         0.144742
 C         2.180100        -0.620432         1.349963
 C         3.583257        -1.214315         0.923493
 C         4.148064        -0.321434        -0.129707
 O         3.986912         1.087540         0.138665
 C         2.724516         1.045832        -0.589162
 C         3.024081        -0.230462        -1.337773
 O         1.872725        -0.928164        -0.938995
 H         0.095156         1.371598         0.964810
 H        -0.138753         1.010355        -0.715583
 H        -0.691297        -0.047638         0.691644
 H         2.417310         0.114064         2.112550
 H         1.486795        -1.387936         1.846727
 H         4.206429        -1.506266         1.746320
 H         3.400868        -2.201344         0.444227
 H         5.107143        -0.767241        -0.405442
 H         2.328394         2.123713        -0.746449
 H         3.455183        -0.412340        -2.361969
