19
Iteration:  4550
 C         0.173009         0.496481         0.254531
 C         1.630905         0.091580         0.104886
 C         2.223237        -0.606351         1.403023
 C         3.507114        -1.186760         0.970179
 C         4.072204        -0.375946        -0.168603
 O         4.011162         1.036196         0.129715
 C         2.724843         1.107911        -0.538004
 C         3.006477        -0.276516        -1.294815
 O         1.865337        -0.913215        -0.990069
 H         0.053029         1.159507         1.113516
 H        -0.117203         1.080355        -0.567004
 H        -0.330460        -0.437280         0.335900
 H         2.364212         0.300329         2.070344
 H         1.489512        -1.274910         1.764182
 H         4.242105        -1.337675         1.837587
 H         3.304041        -2.153380         0.547912
 H         4.971070        -0.918568        -0.591832
 H         2.471964         2.106470        -0.921918
 H         3.493257        -0.269058        -2.269323
