19
Iteration:  2740
 C         0.211240         0.582419         0.120450
 C         1.594997         0.009642         0.217782
 C         2.309661        -0.647297         1.450598
 C         3.641551        -1.229446         1.003176
 C         4.198342        -0.411969        -0.184759
 O         3.924451         1.029485         0.158148
 C         2.693996         1.019412        -0.465380
 C         2.968377        -0.153909        -1.329345
 O         1.734205        -0.878649        -1.069622
 H         0.025501         1.528572         0.617853
 H         0.040273         0.705447        -0.857982
 H        -0.575370        -0.127068         0.438402
 H         2.463155         0.258557         2.147785
 H         1.732665        -1.554697         1.822850
 H         4.295105        -1.301526         1.972471
 H         3.271301        -2.213617         0.620900
 H         5.284368        -0.469111        -0.518861
 H         2.236218         1.974303        -0.718003
 H         3.285263        -0.015498        -2.363680
