19
Iteration:   574charge 0 multiplicity 1
 C         0.243837         0.673703         0.247542
 C         1.615297         0.043083         0.061639
 C         2.241128        -0.583429         1.301208
 C         3.683566        -1.226635         1.106558
 C         4.170289        -0.385400        -0.100650
 O         3.803969         1.106387         0.184878
 C         2.699437         0.924927        -0.583151
 C         3.051874        -0.362575        -1.302597
 O         1.748529        -0.895400        -1.074724
 H         0.152623         1.481674         0.966247
 H        -0.163217         0.835447        -0.735332
 H        -0.413589        -0.020410         0.748432
 H         2.412988         0.152228         2.060897
 H         1.520202        -1.303531         1.772220
 H         4.419653        -1.008246         1.926112
 H         3.684856        -2.270645         0.852611
 H         5.276836        -0.377168        -0.403014
 H         2.355699         1.891143        -1.026686
 H         3.457640        -0.534933        -2.366257
