19
Iteration:  3379
 C         0.177069         0.566651         0.227336
 C         1.652870         0.086333         0.098972
 C         2.248102        -0.613226         1.310577
 C         3.640164        -1.200519         0.962766
 C         4.106835        -0.373534        -0.223187
 O         3.902095         1.003355         0.277081
 C         2.731522         1.092359        -0.427819
 C         3.030764        -0.320324        -1.373299
 O         1.760228        -0.929685        -1.030047
 H        -0.036157         1.422930         0.965020
 H         0.013917         1.167637        -0.707327
 H        -0.419049        -0.315686         0.345675
 H         2.324295         0.166377         2.018735
 H         1.582112        -1.361563         1.794013
 H         4.392002        -1.097366         1.732904
 H         3.493259        -2.262279         0.992134
 H         5.189257        -0.345378        -0.539220
 H         2.511418         2.103155        -0.666844
 H         3.316683        -0.288445        -2.463201
