19
Iteration:  2684
 C         0.135324         0.558847         0.373561
 C         1.608937         0.163596         0.118095
 C         2.168982        -0.675336         1.350201
 C         3.526409        -1.303905         0.908800
 C         4.166199        -0.294617        -0.114365
 O         3.990741         1.139464         0.117316
 C         2.750957         0.980757        -0.623833
 C         3.096082        -0.302887        -1.268282
 O         1.829044        -0.860671        -1.020567
 H        -0.073621         1.109989         1.259654
 H        -0.328118         0.907754        -0.449785
 H        -0.305825        -0.462472         0.526065
 H         2.209768        -0.034056         2.338193
 H         1.455395        -1.516408         1.551533
 H         4.149958        -1.375748         1.875700
 H         3.372203        -2.358200         0.503234
 H         5.232139        -0.451837        -0.298311
 H         2.279292         1.833805        -1.158165
 H         3.479032        -0.393383        -2.302501
