19
Iteration:   120charge 0 multiplicity 1
 C         0.173480         0.626399         0.144643
 C         1.653954        -0.005087         0.109356
 C         2.269422        -0.569458         1.392166
 C         3.698050        -1.072395         1.198443
 C         4.076074        -0.425686        -0.153286
 O         3.911722         0.969539         0.186628
 C         2.645841         0.984958        -0.601431
 C         3.045623        -0.319724        -1.329974
 O         1.746554        -0.894433        -1.095791
 H         0.107715         1.254321         1.096858
 H         0.168415         1.319598        -0.681246
 H        -0.677408        -0.037954         0.085266
 H         2.416305         0.302811         2.085370
 H         1.713925        -1.361099         1.954042
 H         4.425979        -0.795495         1.901129
 H         3.746789        -2.188892         1.041370
 H         5.076689        -0.677610        -0.471682
 H         2.273730         2.029667        -0.976354
 H         3.476299        -0.455533        -2.282858
