19
Iteration:  1303
 C         0.269211         0.661178         0.248406
 C         1.568989        -0.050820         0.143419
 C         2.157437        -0.724276         1.401064
 C         3.652316        -1.059509         1.059205
 C         4.111500        -0.393976        -0.226512
 O         3.931393         1.066371         0.150842
 C         2.678981         0.963108        -0.554444
 C         3.032727        -0.227719        -1.288032
 O         1.787927        -0.947494        -1.082939
 H         0.463909         1.437250         0.999264
 H         0.191622         1.225816        -0.697329
 H        -0.590842        -0.029402         0.451013
 H         2.240467         0.004226         2.170334
 H         1.568198        -1.590139         1.652427
 H         4.325818        -0.745721         1.961782
 H         3.859670        -2.118731         1.043870
 H         5.127859        -0.570502        -0.557465
 H         2.295073         2.083509        -0.810142
 H         3.365470        -0.393348        -2.374138
