19
Iteration:  4692
 C         0.204562         0.601845         0.244639
 C         1.638800         0.007721         0.152079
 C         2.214997        -0.598442         1.368380
 C         3.521099        -1.238189         0.947156
 C         4.051331        -0.425196        -0.223000
 O         3.931497         1.113080         0.225135
 C         2.724386         0.995301        -0.530084
 C         3.021941        -0.199755        -1.323783
 O         1.898586        -0.952920        -1.021225
 H         0.201021         1.702678         0.561115
 H        -0.273674         0.587920        -0.743866
 H        -0.407258         0.045861         0.994768
 H         2.439071         0.297049         2.086858
 H         1.609321        -1.320264         1.889533
 H         4.312016        -1.130209         1.751338
 H         3.475010        -2.263549         0.695937
 H         5.115683        -0.684365        -0.591086
 H         2.413920         1.977978        -0.839192
 H         3.324587        -0.271076        -2.364444
