19
Iteration:  3833charge 0 multiplicity 1
 C         0.241054         0.577534         0.151046
 C         1.621331         0.017220         0.183032
 C         2.219403        -0.639259         1.413634
 C         3.579973        -1.236899         0.961548
 C         4.107122        -0.411395        -0.179174
 O         3.983532         1.054997         0.160571
 C         2.711824         1.018598        -0.451079
 C         2.985628        -0.183798        -1.327938
 O         1.798288        -0.891615        -1.012588
 H        -0.015833         1.173700         1.066299
 H         0.079961         1.190945        -0.727128
 H        -0.474792        -0.296618         0.103176
 H         2.434008         0.147447         2.119759
 H         1.542078        -1.363484         1.787951
 H         4.171309        -1.113826         1.777999
 H         3.484452        -2.182110         0.519917
 H         5.064381        -0.508744        -0.554385
 H         2.346666         2.023709        -0.769770
 H         3.280442        -0.164860        -2.373594
