19
Iteration:  2703charge 0 multiplicity 1
 C         0.186567         0.525849         0.360126
 C         1.599004         0.088458         0.067144
 C         2.206765        -0.571984         1.281485
 C         3.571311        -1.181127         0.958603
 C         4.198203        -0.379055        -0.180989
 O         3.890467         1.016969         0.236889
 C         2.709541         1.025697        -0.566167
 C         3.065586        -0.199797        -1.347725
 O         1.828069        -0.952221        -1.007616
 H         0.370844         1.333204         1.038876
 H        -0.303983         1.026792        -0.562306
 H        -0.501152        -0.233455         0.713967
 H         2.211778         0.159255         2.159764
 H         1.586657        -1.298132         1.749825
 H         4.252070        -1.394807         1.730291
 H         3.353849        -2.210320         0.605311
 H         5.187191        -0.637212        -0.389763
 H         2.467564         2.081666        -0.863345
 H         3.450576        -0.333725        -2.394617
