19
Iteration:  4590
 C         0.149825         0.606371         0.176423
 C         1.585612         0.097350         0.170853
 C         2.283716        -0.630336         1.333267
 C         3.655376        -1.283479         1.011269
 C         4.077539        -0.369954        -0.135965
 O         3.974396         1.079426         0.141113
 C         2.675461         1.011280        -0.566390
 C         3.039747        -0.259509        -1.249219
 O         1.792901        -0.908507        -0.982362
 H        -0.098696         1.047129         1.178549
 H        -0.053386         1.499854        -0.482775
 H        -0.628164        -0.237723        -0.069232
 H         2.589949         0.137325         2.067570
 H         1.612190        -1.368164         1.915090
 H         4.365776        -1.437690         1.828564
 H         3.454080        -2.200156         0.411979
 H         5.152877        -0.434707        -0.546750
 H         2.349244         1.965720        -1.071209
 H         3.388096        -0.539239        -2.323426
