19
Iteration:  4427charge 0 multiplicity 1
 C         0.159925         0.531553         0.216458
 C         1.657894         0.115088         0.109702
 C         2.323675        -0.513315         1.378575
 C         3.670722        -1.212173         1.007658
 C         4.082500        -0.425111        -0.231514
 O         3.859946         0.920695         0.262575
 C         2.679349         1.010361        -0.563418
 C         3.048023        -0.263593        -1.339790
 O         1.785815        -0.835974        -1.032953
 H         0.035726         1.181183         1.042244
 H        -0.025677         1.099035        -0.681940
 H        -0.540204        -0.318373         0.068968
 H         2.454477         0.283935         2.195565
 H         1.488593        -1.125841         1.821122
 H         4.261408        -0.949726         1.927457
 H         3.687432        -2.328184         0.957936
 H         5.209759        -0.578112        -0.437051
 H         2.315740         2.023942        -0.748464
 H         3.329141        -0.334320        -2.425249
