19
Iteration:   373charge 0 multiplicity 1
 C         0.271513         0.585444         0.108776
 C         1.618024        -0.044351         0.157957
 C         2.129060        -0.736692         1.427716
 C         3.664685        -1.096704         1.123905
 C         4.053848        -0.388716        -0.138313
 O         4.044219         1.087269         0.027326
 C         2.708563         1.015190        -0.485436
 C         3.049337        -0.249834        -1.303182
 O         1.702901        -0.881025        -1.018426
 H         0.192830         1.400600         0.740762
 H        -0.035168         1.124012        -0.879785
 H        -0.684567         0.008191         0.356793
 H         2.016524         0.001447         2.282916
 H         1.567808        -1.617368         1.643820
 H         4.295145        -0.757974         1.946450
 H         3.911458        -2.185571         0.887333
 H         5.059769        -0.568694        -0.432401
 H         2.322838         1.964743        -0.802953
 H         3.474888        -0.456443        -2.257446
