19
Iteration:  2163charge 0 multiplicity 1
 C         0.145897         0.529965         0.206839
 C         1.623483        -0.020189         0.148996
 C         2.274347        -0.537803         1.422081
 C         3.673425        -1.178688         1.018863
 C         4.070904        -0.416233        -0.256765
 O         3.935799         1.010905         0.204253
 C         2.720262         1.035984        -0.460495
 C         2.992267        -0.154899        -1.376269
 O         1.804307        -0.922072        -1.064089
 H         0.015138         1.335459         1.070293
 H        -0.135952         0.910208        -0.757048
 H        -0.563422        -0.355369         0.476353
 H         2.519716         0.348267         2.127018
 H         1.619434        -1.254618         2.004154
 H         4.443509        -1.166238         1.794055
 H         3.588780        -2.265173         0.751046
 H         5.064500        -0.735779        -0.588066
 H         2.462504         1.994389        -0.829516
 H         3.152476        -0.105505        -2.404123
