19
Iteration:  4571charge 0 multiplicity 1
 C         0.164408         0.534070         0.227550
 C         1.631304         0.122593         0.138166
 C         2.183255        -0.541493         1.403623
 C         3.497148        -1.279398         0.848916
 C         4.295518        -0.419170        -0.146562
 O         3.933150         1.122913         0.152371
 C         2.761721         1.026384        -0.584018
 C         3.059338        -0.284284        -1.326798
 O         1.770177        -0.902346        -0.848680
 H        -0.178512         1.032990         1.130234
 H        -0.070581         1.248657        -0.511466
 H        -0.279883        -0.444717         0.000472
 H         2.296573        -0.052542         2.443188
 H         1.489908        -1.385045         1.441768
 H         4.263093        -1.312572         1.694610
 H         3.310792        -2.241708         0.445589
 H         5.449487        -0.510753        -0.421387
 H         2.227596         1.863646        -1.033542
 H         3.144421        -0.398510        -2.444513
