19
Iteration:   451
 C         0.215580         0.444952         0.216460
 C         1.649261         0.017137         0.114747
 C         2.203096        -0.502197         1.549937
 C         3.337454        -1.296340         0.947719
 C         4.106059        -0.328549        -0.094750
 O         4.017474         1.167282         0.060901
 C         2.716926         1.016466        -0.575057
 C         3.135198        -0.290123        -1.322139
 O         1.864907        -0.904799        -1.014366
 H         0.080598         1.181164         0.950661
 H        -0.258354         0.897929        -0.764221
 H        -0.503587        -0.338572         0.633460
 H         2.582326         0.416266         2.066816
 H         1.587805        -1.050483         2.267028
 H         4.052061        -1.575312         1.764542
 H         3.080892        -2.200704         0.284159
 H         5.173143        -0.578040        -0.230234
 H         2.290679         1.909710        -1.040998
 H         3.455358        -0.367766        -2.393622
