19
Iteration:  3925charge 0 multiplicity 1
 C         0.190090         0.502863         0.254695
 C         1.586936         0.079412         0.062858
 C         2.203572        -0.590064         1.325233
 C         3.572954        -1.336170         1.009237
 C         4.209446        -0.371463        -0.125984
 O         4.065250         1.077181         0.177919
 C         2.701660         1.051604        -0.506841
 C         3.012633        -0.182149        -1.286860
 O         1.710628        -0.862991        -1.039591
 H        -0.013521         1.370504         0.901199
 H        -0.202543         0.644503        -0.805298
 H        -0.435694        -0.294236         0.633863
 H         2.411085         0.183013         2.010005
 H         1.618156        -1.421526         1.763409
 H         4.037688        -1.247995         1.969475
 H         3.368122        -2.338391         0.572686
 H         5.227328        -0.787350        -0.484428
 H         2.432371         2.017120        -0.924007
 H         3.433436        -0.169335        -2.310220
