19
Iteration:  4338
 C         0.216173         0.672263         0.188151
 C         1.612122         0.087387         0.034087
 C         2.217043        -0.553678         1.273608
 C         3.702878        -1.213384         0.962345
 C         4.158874        -0.428474        -0.211570
 O         3.827676         0.957163         0.260888
 C         2.646096         1.048830        -0.462175
 C         3.055798        -0.305499        -1.283793
 O         1.811098        -0.932807        -0.947071
 H         0.335647         1.402548         0.943445
 H        -0.291077         1.097258        -0.703573
 H        -0.491371        -0.056415         0.548324
 H         2.358812         0.188563         2.018515
 H         1.432274        -1.320501         1.609269
 H         4.447427        -1.058730         1.708502
 H         3.807842        -2.345801         0.767407
 H         5.200792        -0.528374        -0.564886
 H         2.276782         2.029806        -0.740649
 H         3.406324        -0.266840        -2.284498
