19
Iteration:  4559charge 0 multiplicity 1
 C         0.215065         0.497974         0.233908
 C         1.655824         0.172906         0.191348
 C         2.142010        -0.581349         1.369712
 C         3.499633        -1.199587         0.897760
 C         4.085058        -0.308283        -0.219233
 O         4.032823         1.051791         0.172446
 C         2.717838         0.978801        -0.580139
 C         3.077665        -0.262294        -1.332704
 O         1.821561        -0.924682        -0.895692
 H        -0.030724         0.909907         1.218740
 H        -0.152217         1.043819        -0.612796
 H        -0.398282        -0.446886         0.244933
 H         2.294263         0.121569         2.258088
 H         1.389477        -1.331885         1.714279
 H         4.166362        -1.433514         1.758851
 H         3.273889        -2.154080         0.442369
 H         5.232780        -0.563145        -0.391749
 H         2.522598         1.957993        -1.025776
 H         3.335431        -0.482725        -2.431696
