19
Iteration:  3370
 C         0.158835         0.541919         0.177006
 C         1.619335         0.059482         0.148271
 C         2.235301        -0.627120         1.358808
 C         3.557762        -1.215146         0.954643
 C         4.119244        -0.390025        -0.295176
 O         3.968362         1.001504         0.251863
 C         2.712086         1.106197        -0.447096
 C         3.024388        -0.227667        -1.311060
 O         1.835798        -0.924923        -0.972828
 H         0.135147         1.219416         1.060718
 H         0.031960         1.101960        -0.802692
 H        -0.666217        -0.210577         0.188299
 H         2.464269         0.143061         2.130972
 H         1.527560        -1.352118         1.698126
 H         4.188325        -0.851420         1.749129
 H         3.582567        -2.303703         0.803168
 H         5.073646        -0.573706        -0.727491
 H         2.480490         2.133083        -0.876892
 H         3.209595        -0.280834        -2.379170
