19
Iteration:  1865
 C         0.201411         0.560240         0.296503
 C         1.626864         0.009347         0.095101
 C         2.238719        -0.524048         1.378857
 C         3.565820        -1.239751         0.949035
 C         4.187440        -0.341002        -0.146781
 O         3.914357         1.049818         0.190393
 C         2.631102         0.982011        -0.461844
 C         3.058112        -0.245762        -1.379033
 O         1.831884        -0.931146        -1.064020
 H         0.388974         1.471541         0.832120
 H        -0.188314         0.882085        -0.762594
 H        -0.515417        -0.108285         0.737376
 H         2.332602         0.338487         2.048058
 H         1.474918        -1.249838         1.891691
 H         4.219273        -1.225517         1.817391
 H         3.188342        -2.254904         0.671933
 H         5.173745        -0.703811        -0.535432
 H         2.310384         1.991369        -0.819356
 H         3.578946        -0.228705        -2.358768
