19
Iteration:    69
 C         0.209725         0.624991         0.255424
 C         1.627968         0.064611         0.129290
 C         2.110986        -0.616037         1.440622
 C         3.487381        -1.318975         1.036893
 C         4.144149        -0.376068        -0.041273
 O         3.963614         1.216919        -0.030033
 C         2.722721         1.000642        -0.672179
 C         3.124857        -0.328823        -1.212755
 O         1.830118        -0.901402        -0.999105
 H         0.233053         1.414715         0.897843
 H        -0.247279         0.883786        -0.779837
 H        -0.405558        -0.199702         0.745548
 H         2.288800        -0.048681         2.319661
 H         1.489378        -1.404513         1.738514
 H         4.166251        -1.542653         1.930994
 H         3.362845        -2.163530         0.449977
 H         5.229394        -0.621655        -0.234856
 H         2.463289         1.759051        -1.295937
 H         3.602750        -0.493325        -2.214077
