19
Iteration:    13charge 0 multiplicity 1
 C         0.100455         0.608282         0.174265
 C         1.610861         0.105279         0.118514
 C         2.203370        -0.456895         1.352123
 C         3.577450        -1.201696         1.014230
 C         4.153424        -0.555980        -0.250459
 O         3.922267         1.033665         0.253639
 C         2.717954         0.961428        -0.521575
 C         3.073714        -0.215503        -1.406481
 O         1.896029        -0.953071        -0.909653
 H        -0.104254         1.450027         0.755844
 H        -0.190870         0.828238        -0.940002
 H        -0.577482        -0.261645         0.500445
 H         2.388387         0.334814         2.041613
 H         1.494532        -1.107342         1.775033
 H         4.312601        -0.745923         1.819402
 H         3.597554        -2.256326         1.079177
 H         5.212753        -0.760434        -0.535553
 H         2.403032         1.858462        -0.929976
 H         3.144252        -0.345927        -2.504248
