19
Iteration:  2140charge 0 multiplicity 1
 C         0.196472         0.510302         0.092407
 C         1.637481         0.012518         0.244634
 C         2.349911        -0.545542         1.415515
 C         3.603302        -1.270474         0.912106
 C         4.132958        -0.343014        -0.183504
 O         3.960378         1.086622         0.162663
 C         2.644379         1.003613        -0.483951
 C         2.989996        -0.245126        -1.288124
 O         1.741256        -0.855007        -0.981732
 H        -0.094224         1.112242         1.072854
 H         0.002742         0.992224        -0.862990
 H        -0.474640        -0.458194         0.192550
 H         2.476980         0.379370         2.067736
 H         1.586836        -1.252359         1.915612
 H         4.366922        -1.445834         1.679773
 H         3.462227        -2.327131         0.500872
 H         5.190585        -0.506085        -0.487149
 H         2.451803         1.961335        -0.838369
 H         3.165669        -0.397466        -2.313348
