19
Iteration:  3931
 C         0.149152         0.496393         0.181014
 C         1.572001         0.059660         0.091259
 C         2.269359        -0.569241         1.291708
 C         3.609534        -1.287490         0.975112
 C         4.154972        -0.396356        -0.148624
 O         4.003898         1.049336         0.215295
 C         2.752032         1.014123        -0.464236
 C         3.046113        -0.212943        -1.272020
 O         1.710303        -0.834020        -1.028305
 H         0.162340         1.464230         0.742773
 H        -0.296640         0.857685        -0.736491
 H        -0.418076        -0.290170         0.751138
 H         2.487733         0.193658         2.140774
 H         1.516898        -1.261388         1.740135
 H         4.251083        -1.225702         1.909717
 H         3.402570        -2.331121         0.675212
 H         5.084782        -0.606166        -0.620773
 H         2.419318         2.039789        -0.785457
 H         3.341337        -0.307927        -2.331838
