19
Iteration:  1640
 C         0.265100         0.602020         0.218925
 C         1.650466         0.035349         0.148121
 C         2.108529        -0.672683         1.402011
 C         3.539124        -1.204508         1.026135
 C         4.158737        -0.321003        -0.110033
 O         3.967641         1.173542         0.047044
 C         2.692088         0.948263        -0.550028
 C         3.073081        -0.219736        -1.307008
 O         1.811115        -0.960591        -1.000456
 H         0.209157         1.277954         1.082659
 H        -0.103703         1.012851        -0.716018
 H        -0.466950        -0.251778         0.399200
 H         2.112151         0.177955         2.186436
 H         1.428358        -1.471952         1.746565
 H         4.273353        -1.542631         1.788321
 H         3.298533        -2.231763         0.617287
 H         5.222196        -0.612392        -0.312307
 H         2.328197         1.871548        -0.808914
 H         3.412251        -0.416708        -2.341696
