19
Iteration:  2489charge 0 multiplicity 1
 C         0.194864         0.521010         0.216790
 C         1.605812         0.048905         0.134202
 C         2.119993        -0.698353         1.399261
 C         3.507762        -1.176487         0.873648
 C         4.121382        -0.300946        -0.225258
 O         4.037972         1.124420         0.146441
 C         2.753982         0.996834        -0.474524
 C         2.996919        -0.201496        -1.356494
 O         1.883082        -0.953477        -0.885390
 H         0.234248         1.065721         1.260893
 H        -0.096248         1.276229        -0.516736
 H        -0.654581        -0.304963         0.247217
 H         2.056058        -0.264679         2.348567
 H         1.516437        -1.642750         1.649249
 H         4.233379        -1.159811         1.677450
 H         3.550812        -2.117825         0.501115
 H         5.254332        -0.358346        -0.537629
 H         2.454640         1.950123        -0.854995
 H         3.127000        -0.223167        -2.433740
