19
Iteration:  2726
 C         0.253297         0.565866         0.194892
 C         1.648806         0.002101         0.176588
 C         2.241909        -0.584647         1.406431
 C         3.648009        -1.250379         0.972373
 C         4.063810        -0.401885        -0.202409
 O         3.922414         1.052217         0.252387
 C         2.623524         0.989101        -0.446775
 C         3.003454        -0.192785        -1.353669
 O         1.793814        -0.895930        -1.124676
 H         0.326049         1.470255         0.730505
 H        -0.081516         0.877816        -0.829460
 H        -0.560719        -0.089297         0.560665
 H         2.570377         0.303121         2.095477
 H         1.570382        -1.003201         2.094067
 H         4.463620        -1.156082         1.662634
 H         3.782455        -2.333573         0.750032
 H         5.012368        -0.656465        -0.516760
 H         2.329767         2.003342        -0.806057
 H         3.344738        -0.222810        -2.425732
