19
Iteration:   364
 C         0.210335         0.584192         0.174091
 C         1.610526        -0.033530         0.155836
 C         2.089601        -0.772416         1.434588
 C         3.598394        -1.137288         1.082647
 C         4.141523        -0.314138        -0.102858
 O         4.070565         1.147373         0.011290
 C         2.745567         1.039247        -0.557275
 C         3.021682        -0.310614        -1.240462
 O         1.705210        -0.863747        -1.016071
 H         0.260994         1.408038         0.796730
 H         0.307498         0.857352        -0.978997
 H        -0.554456        -0.259042         0.260759
 H         2.152650         0.026386         2.201034
 H         1.506902        -1.610855         1.820682
 H         4.270639        -1.069478         1.943068
 H         3.727663        -2.135098         0.753308
 H         5.148768        -0.734088        -0.398293
 H         2.365595         1.927230        -1.052410
 H         3.402748        -0.381639        -2.300329
