19
Iteration:  4852charge 0 multiplicity 1
 C         0.128959         0.561113         0.292419
 C         1.550332         0.105052         0.138155
 C         2.157863        -0.629426         1.413001
 C         3.458728        -1.225157         0.901060
 C         4.146395        -0.318752        -0.225099
 O         4.073554         1.078854         0.126067
 C         2.652604         1.032506        -0.504721
 C         3.117801        -0.220278        -1.336812
 O         1.931914        -0.987712        -0.934616
 H         0.083329         1.535855         0.747414
 H        -0.377009         0.593491        -0.636958
 H        -0.296741        -0.297487         0.884147
 H         2.129868         0.029946         2.283784
 H         1.465525        -1.500815         1.632457
 H         4.203784        -1.297310         1.760305
 H         3.266622        -2.251840         0.349254
 H         5.218366        -0.377790        -0.463028
 H         2.370462         2.089366        -0.970265
 H         3.320968        -0.413573        -2.456191
