19
Iteration:  3187charge 0 multiplicity 1
 C         0.262977         0.447967         0.295449
 C         1.640335         0.010513         0.059045
 C         2.266765        -0.527899         1.460925
 C         3.603427        -1.217162         1.007124
 C         4.082066        -0.458191        -0.155983
 O         3.917759         1.087504         0.237711
 C         2.682310         0.988935        -0.481095
 C         3.064741        -0.266809        -1.351934
 O         1.747076        -0.801485        -1.165654
 H         0.235169         1.175105         1.133707
 H        -0.001418         1.204308        -0.524596
 H        -0.690418        -0.208654         0.193606
 H         2.561492         0.459954         1.928598
 H         1.538839        -1.181672         1.875394
 H         4.385091        -1.399556         1.725529
 H         3.246344        -2.172402         0.573199
 H         5.051523        -0.579484        -0.570441
 H         2.361001         2.037197        -0.856934
 H         3.457964        -0.413369        -2.305274
