19
Iteration:  4684charge 0 multiplicity 1
 C         0.206182         0.585219         0.246421
 C         1.638097         0.069041         0.138678
 C         2.228871        -0.637339         1.391680
 C         3.539410        -1.246486         0.936645
 C         4.103291        -0.425084        -0.172880
 O         3.944327         1.082768         0.135012
 C         2.707495         1.068651        -0.527185
 C         3.035912        -0.207065        -1.301046
 O         1.849417        -0.954675        -1.016853
 H         0.195394         1.629459         0.502773
 H        -0.362752         0.544025        -0.681945
 H        -0.368172         0.041232         0.908231
 H         2.507554         0.072251         2.197469
 H         1.504931        -1.343515         1.786652
 H         4.086696        -1.170754         1.880083
 H         3.404860        -2.306699         0.608120
 H         5.153578        -0.573480        -0.278410
 H         2.130361         1.979474        -0.824156
 H         3.555263        -0.179463        -2.213341
