19
Iteration:  2610
 C         0.195808         0.551776         0.151350
 C         1.627696         0.071305         0.153076
 C         2.304251        -0.657853         1.343794
 C         3.657054        -1.253139         0.998638
 C         4.139534        -0.330986        -0.217308
 O         3.946355         1.038180         0.234546
 C         2.682311         1.051568        -0.488275
 C         3.005027        -0.183974        -1.352189
 O         1.726727        -0.916203        -0.975930
 H         0.017042         1.197571         1.107891
 H        -0.113674         0.990584        -0.790992
 H        -0.499256        -0.369953         0.249536
 H         2.444696         0.026359         2.089050
 H         1.512480        -1.292191         1.788101
 H         4.208923        -1.369350         1.945128
 H         3.521655        -2.248618         0.697288
 H         5.224733        -0.474313        -0.639552
 H         2.382534         1.996161        -0.914631
 H         3.207611        -0.164250        -2.407493
