19
Iteration:  4762
 C         0.170597         0.472257         0.318081
 C         1.624319         0.135001         0.184982
 C         2.127880        -0.645844         1.342002
 C         3.502474        -1.098726         0.972851
 C         4.148925        -0.350847        -0.145235
 O         4.071770         1.085832         0.006473
 C         2.747729         1.030743        -0.502306
 C         3.003801        -0.296155        -1.317035
 O         1.842884        -0.916342        -0.974000
 H        -0.237013         0.719854         1.263273
 H        -0.036919         1.305826        -0.371426
 H        -0.332353        -0.412221        -0.004028
 H         2.191136        -0.059089         2.247618
 H         1.437227        -1.518200         1.593290
 H         4.087241        -1.338406         1.858376
 H         3.320772        -2.165185         0.490616
 H         5.211659        -0.637505        -0.172638
 H         2.472906         2.073240        -0.962140
 H         3.364987        -0.403478        -2.377808
