19
Iteration:  4669
 C         0.181009         0.537001         0.244315
 C         1.620212         0.086443         0.138314
 C         2.169552        -0.654003         1.359354
 C         3.584643        -1.292425         1.009322
 C         4.204455        -0.304287        -0.071123
 O         4.021535         1.092283         0.061822
 C         2.651943         1.003237        -0.556707
 C         3.082390        -0.254049        -1.285372
 O         1.744337        -0.844134        -0.986466
 H         0.066270         1.636407         0.581046
 H        -0.256957         0.517025        -0.766910
 H        -0.363012        -0.155925         1.007010
 H         2.118645         0.035281         2.300839
 H         1.485814        -1.506354         1.498205
 H         4.325770        -1.600163         1.789851
 H         3.382893        -2.112323         0.371701
 H         5.302613        -0.575320        -0.399452
 H         2.535039         1.977928        -0.937651
 H         3.236629        -0.416602        -2.378693
