19
Iteration:  4234charge 0 multiplicity 1
 C         0.239385         0.548108         0.194021
 C         1.633811         0.022498         0.110934
 C         2.309219        -0.502717         1.349137
 C         3.623930        -1.290096         1.045204
 C         4.056660        -0.401050        -0.084592
 O         3.926287         1.014938         0.209187
 C         2.732647         1.037149        -0.512085
 C         2.950277        -0.183032        -1.389132
 O         1.724385        -0.931919        -1.086157
 H        -0.097703         1.005756         1.190890
 H         0.090475         1.315661        -0.568321
 H        -0.297494        -0.447491         0.040717
 H         2.621082         0.410411         1.968740
 H         1.626228        -0.996653         1.991555
 H         4.439698        -1.053052         1.805159
 H         3.574505        -2.286563         0.734853
 H         5.085462        -0.610742        -0.475644
 H         2.289576         2.054286        -0.701863
 H         3.714139        -0.268677        -2.191934
