19
Iteration:   641
 C         0.136032         0.438186         0.140434
 C         1.637309         0.190690         0.160555
 C         2.200667        -0.560035         1.450935
 C         3.574548        -1.208870         0.952686
 C         4.122375        -0.346867        -0.131127
 O         4.053694         1.069461         0.132606
 C         2.803705         1.022178        -0.611060
 C         2.999436        -0.288672        -1.270292
 O         1.742419        -0.882290        -0.948217
 H        -0.270232         0.964361         1.066950
 H        -0.258610         0.814279        -0.743315
 H        -0.295110        -0.532018         0.302267
 H         2.278004         0.142152         2.247988
 H         1.555509        -1.404366         1.862381
 H         4.252779        -1.328874         1.837456
 H         3.289243        -2.099384         0.446109
 H         5.189043        -0.666577        -0.395894
 H         2.596445         1.920174        -1.209058
 H         3.256502        -0.527725        -2.340195
