19
Iteration:  2022
 C         0.220318         0.558830         0.188820
 C         1.604907         0.040097         0.169046
 C         2.122522        -0.689853         1.360336
 C         3.556182        -1.163983         0.946650
 C         4.113825        -0.366347        -0.238368
 O         3.995382         1.116475         0.104170
 C         2.716790         1.110435        -0.486499
 C         3.016283        -0.219767        -1.302690
 O         1.903256        -0.978087        -0.901816
 H         0.120496         1.412349         0.938367
 H        -0.171855         0.809406        -0.719151
 H        -0.398471        -0.203429         0.743587
 H         2.287544        -0.085898         2.283425
 H         1.509914        -1.540249         1.611920
 H         4.208274        -1.437714         1.749128
 H         3.331091        -2.118407         0.517826
 H         5.104071        -0.718783        -0.498443
 H         2.144098         2.043973        -0.880229
 H         3.299594        -0.376601        -2.303506
