19
Iteration:  4292charge 0 multiplicity 1
 C         0.293290         0.539322         0.217778
 C         1.598431         0.030424         0.106816
 C         2.161741        -0.682778         1.353651
 C         3.512894        -1.263827         1.040958
 C         4.158708        -0.348506        -0.136221
 O         4.043319         1.142262         0.029869
 C         2.719919         1.032252        -0.493817
 C         2.984888        -0.198184        -1.234236
 O         1.783872        -0.859974        -0.995204
 H         0.372408         1.425216         0.893128
 H        -0.285721         0.640249        -0.726731
 H        -0.344105        -0.212405         0.674081
 H         2.046532        -0.046126         2.221517
 H         1.478163        -1.557679         1.447555
 H         3.993854        -1.469933         1.965370
 H         3.325752        -2.341730         0.738944
 H         5.160531        -0.585700        -0.441024
 H         2.368513         1.955599        -1.076485
 H         3.511039        -0.391959        -2.184986
