19
Iteration:  2326charge 0 multiplicity 1
 C         0.189392         0.480712         0.376458
 C         1.609690         0.069229         0.058580
 C         2.200495        -0.489111         1.304949
 C         3.578826        -1.187236         0.986963
 C         4.114684        -0.421996        -0.215858
 O         3.940468         0.997476         0.165330
 C         2.702362         1.058229        -0.513521
 C         3.145161        -0.173213        -1.300428
 O         1.809357        -0.938126        -1.044095
 H         0.154243         0.998419         1.354007
 H        -0.255149         0.990370        -0.392612
 H        -0.454503        -0.410134         0.581815
 H         2.155292         0.199475         2.190973
 H         1.416431        -1.362062         1.502885
 H         4.317553        -1.263712         1.841773
 H         3.365181        -2.365701         0.697449
 H         5.176852        -0.414128        -0.537313
 H         2.348607         1.977303        -0.890640
 H         3.310933        -0.111358        -2.330919
