19
Iteration:  3924charge 0 multiplicity 1
 C         0.192623         0.504254         0.262925
 C         1.592106         0.081379         0.064900
 C         2.196027        -0.594827         1.328896
 C         3.566218        -1.333667         1.011164
 C         4.212129        -0.372191        -0.123692
 O         4.071420         1.079011         0.172682
 C         2.696489         1.055245        -0.511902
 C         3.010475        -0.180337        -1.287885
 O         1.714257        -0.865747        -1.042756
 H        -0.029577         1.368581         0.928774
 H        -0.196361         0.623720        -0.811595
 H        -0.438385        -0.301696         0.619743
 H         2.395550         0.186664         2.001948
 H         1.606771        -1.437711         1.774628
 H         4.030308        -1.274964         1.968737
 H         3.374879        -2.348683         0.563312
 H         5.244155        -0.786133        -0.459592
 H         2.429247         2.030053        -0.948056
 H         3.438062        -0.158243        -2.321639
