19
Iteration:  4536
 C         0.171173         0.500728         0.236846
 C         1.576176        -0.007059         0.109334
 C         2.225848        -0.491347         1.383751
 C         3.598644        -1.265982         1.066164
 C         4.101772        -0.503460        -0.166565
 O         4.013931         1.058518         0.114141
 C         2.722259         1.040441        -0.509429
 C         3.067792        -0.122420        -1.305321
 O         1.763226        -0.887002        -1.102876
 H         0.175376         1.192572         1.081512
 H        -0.223812         0.912454        -0.703044
 H        -0.665726        -0.207203         0.577783
 H         2.446154         0.305771         2.114370
 H         1.597488        -1.236348         1.994238
 H         4.313992        -1.151485         1.875419
 H         3.469587        -2.354348         0.913094
 H         5.257051        -0.532527        -0.339627
 H         2.345216         2.049429        -0.743737
 H         3.303162        -0.307332        -2.408788
