19
Iteration:  3432charge 0 multiplicity 1
 C         0.205068         0.542333         0.320185
 C         1.649592         0.077968         0.067112
 C         2.115063        -0.666934         1.345376
 C         3.484932        -1.181848         0.942558
 C         4.195170        -0.309118        -0.113094
 O         4.032131         1.083215         0.135088
 C         2.682478         1.044130        -0.528407
 C         3.008337        -0.216610        -1.324181
 O         1.886554        -0.967171        -1.009526
 H         0.385970         1.311495         1.167680
 H        -0.462690         0.874982        -0.473686
 H        -0.432299        -0.105229         0.920634
 H         2.153368        -0.134150         2.272792
 H         1.371803        -1.534067         1.519025
 H         3.987123        -1.385443         1.910255
 H         3.345945        -2.203438         0.518447
 H         5.173036        -0.681843        -0.636002
 H         2.326492         1.956509        -0.998271
 H         3.389186        -0.203861        -2.399984
