19
Iteration:  4616charge 0 multiplicity 1
 C         0.278250         0.538980         0.229081
 C         1.620024         0.004783         0.146444
 C         2.196535        -0.560046         1.374992
 C         3.574261        -1.092754         1.085587
 C         4.161662        -0.505442        -0.264351
 O         3.917219         1.036334         0.198270
 C         2.690832         0.958207        -0.460335
 C         3.012572        -0.188933        -1.409515
 O         1.779853        -0.910256        -1.084518
 H         0.326288         1.102471         1.170785
 H         0.096417         1.358498        -0.397235
 H        -0.517908        -0.141499         0.245095
 H         2.336604         0.317836         2.104412
 H         1.648675        -1.318722         1.857258
 H         4.339098        -0.963220         1.895888
 H         3.400422        -2.119675         0.870269
 H         5.271281        -0.633878        -0.451380
 H         2.376991         1.955121        -0.770595
 H         3.172098        -0.211081        -2.445035
