19
Iteration:  1591
 C         0.159861         0.515999         0.242153
 C         1.642781         0.179704         0.083901
 C         2.192999        -0.523578         1.325444
 C         3.579301        -1.128942         0.994331
 C         4.196516        -0.400903        -0.190405
 O         3.916445         0.977220         0.239999
 C         2.712546         0.983834        -0.523894
 C         3.025042        -0.311995        -1.328588
 O         1.810892        -0.942577        -1.016039
 H         0.111400         1.032504         1.248046
 H        -0.155585         1.295434        -0.512284
 H        -0.548563        -0.252990         0.138309
 H         2.165374         0.169080         2.098711
 H         1.621875        -1.412345         1.567454
 H         4.302006        -0.801781         1.738796
 H         3.778896        -2.198994         1.092477
 H         5.254271        -0.569087        -0.487574
 H         2.499857         2.066467        -0.977089
 H         3.239007        -0.429575        -2.397509
