19
Iteration:  3104
 C         0.238665         0.629776         0.140780
 C         1.613487        -0.043942         0.146383
 C         2.289130        -0.652824         1.460557
 C         3.673426        -1.216324         1.024599
 C         4.140791        -0.436357        -0.258181
 O         3.926854         1.054762         0.194102
 C         2.618787         0.976113        -0.461012
 C         3.001300        -0.197179        -1.265562
 O         1.730885        -0.806881        -1.102900
 H         0.089140         1.474866         0.841209
 H         0.255064         0.866431        -0.856715
 H        -0.412398        -0.111290         0.372314
 H         2.212174         0.146418         2.125409
 H         1.725967        -1.460566         2.007971
 H         4.424670        -1.156854         1.859899
 H         3.564813        -2.304351         0.923004
 H         5.139261        -0.436723        -0.739046
 H         2.298649         1.880639        -0.797338
 H         3.283050        -0.347781        -2.320050
