19
Iteration:  1354charge 0 multiplicity 1
 C         0.106298         0.519650         0.263765
 C         1.590374         0.102824         0.131083
 C         2.172695        -0.593255         1.328192
 C         3.578356        -1.145522         0.959116
 C         4.091714        -0.394720        -0.218014
 O         3.987163         1.042143         0.172672
 C         2.759304         1.022457        -0.598856
 C         3.122968        -0.291086        -1.275956
 O         1.824458        -0.873679        -0.930970
 H         0.056658         1.317757         0.949114
 H        -0.422459         0.761821        -0.731240
 H        -0.376609        -0.368328         0.645020
 H         2.317406         0.046166         2.229316
 H         1.509714        -1.476030         1.412869
 H         4.245798        -1.107713         1.784277
 H         3.674533        -2.215568         0.737416
 H         5.168359        -0.547522        -0.370839
 H         2.515818         1.983538        -1.006583
 H         3.282164        -0.502217        -2.259463
