19
Iteration:  2183
 C         0.169711         0.484881         0.347172
 C         1.604950         0.086768         0.093098
 C         2.144963        -0.603304         1.316221
 C         3.558057        -1.167603         0.940105
 C         4.192619        -0.362908        -0.227274
 O         4.003553         1.020095         0.152588
 C         2.658966         1.053496        -0.538800
 C         3.061528        -0.228298        -1.338460
 O         1.832105        -0.897796        -0.978630
 H         0.226223         1.348105         1.049387
 H        -0.264416         0.912968        -0.546818
 H        -0.430405        -0.364514         0.788493
 H         2.354519        -0.037846         2.222284
 H         1.518593        -1.478227         1.706780
 H         4.162326        -0.925694         1.852073
 H         3.539241        -2.323362         0.963706
 H         5.259336        -0.645183        -0.424158
 H         2.233998         1.970771        -0.820759
 H         3.358802        -0.340916        -2.358332
