19
Iteration:  4685
 C         0.206106         0.590224         0.247894
 C         1.642015         0.059324         0.141071
 C         2.231025        -0.630397         1.391401
 C         3.536262        -1.242928         0.936800
 C         4.094917        -0.430535        -0.183407
 O         3.940852         1.088998         0.147064
 C         2.716134         1.058984        -0.529763
 C         3.027413        -0.205458        -1.299192
 O         1.859246        -0.955895        -1.018005
 H         0.182896         1.624530         0.488675
 H        -0.364770         0.564335        -0.686497
 H        -0.375921         0.037421         0.918288
 H         2.506084         0.072493         2.156673
 H         1.511113        -1.353373         1.808689
 H         4.080957        -1.141596         1.866544
 H         3.408041        -2.324984         0.609345
 H         5.123130        -0.581345        -0.301930
 H         2.139584         1.987294        -0.818797
 H         3.559923        -0.179729        -2.239070
