19
Iteration:   503charge 0 multiplicity 1
 C         0.142904         0.546143         0.118693
 C         1.613570         0.054161         0.140674
 C         2.254785        -0.629181         1.413712
 C         3.727927        -1.082890         1.111185
 C         4.117712        -0.477760        -0.158083
 O         3.964259         1.052376         0.146699
 C         2.732565         1.017160        -0.536259
 C         3.003525        -0.313387        -1.307729
 O         1.727045        -0.822173        -1.051457
 H        -0.140184         1.173060         0.955318
 H         0.047554         1.011624        -0.877964
 H        -0.652450        -0.233818         0.237835
 H         2.040568         0.124861         2.244757
 H         1.735533        -1.530269         1.688512
 H         4.377695        -0.888405         1.966204
 H         3.718761        -2.230174         0.921563
 H         5.040693        -0.729469        -0.586368
 H         2.308983         1.972767        -0.852106
 H         3.363110        -0.493934        -2.281216
