19
Iteration:   801
 C         0.194230         0.499549         0.280353
 C         1.658244         0.037220         0.131859
 C         2.216676        -0.608204         1.355035
 C         3.546893        -1.299088         0.984504
 C         4.213794        -0.279876        -0.053293
 O         3.970662         1.106046         0.109707
 C         2.644056         1.010043        -0.610783
 C         3.097867        -0.314151        -1.288987
 O         1.749427        -0.813402        -1.009045
 H         0.213712         1.290729         1.006303
 H        -0.118221         0.939231        -0.787005
 H        -0.574176        -0.341077         0.557219
 H         2.340751         0.204719         2.149348
 H         1.626446        -1.338443         1.860286
 H         4.153187        -1.543545         1.858902
 H         3.059432        -2.105200         0.281729
 H         5.224315        -0.599235        -0.310346
 H         2.327149         1.975720        -1.111604
 H         3.383685        -0.478539        -2.370882
