19
Iteration:  3039
 C         0.194998         0.527618         0.333212
 C         1.626897         0.041096         0.123923
 C         2.194594        -0.646641         1.380220
 C         3.496749        -1.289092         0.995084
 C         4.140777        -0.331082        -0.083263
 O         4.037262         1.156163         0.119195
 C         2.763022         1.046441        -0.542397
 C         3.043296        -0.263499        -1.381932
 O         1.766904        -0.870789        -1.095832
 H        -0.111748         1.197754         1.232161
 H        -0.148435         0.826087        -0.634809
 H        -0.384765        -0.352664         0.574521
 H         2.375231         0.152059         2.070803
 H         1.482904        -1.393801         1.965951
 H         4.203203        -1.498837         1.876143
 H         3.269326        -2.291463         0.530928
 H         5.220305        -0.560300        -0.240407
 H         2.329443         1.945314        -0.901667
 H         3.393997        -0.373279        -2.424400
