19
Iteration:  1972charge 0 multiplicity 1
 C         0.164132         0.467622         0.272079
 C         1.620062         0.074920         0.094652
 C         2.310091        -0.434715         1.321425
 C         3.608923        -1.257576         0.952792
 C         4.133479        -0.374872        -0.197970
 O         3.880606         0.995338         0.274672
 C         2.702587         1.070388        -0.531707
 C         3.071475        -0.272815        -1.356898
 O         1.771523        -0.910798        -1.033412
 H         0.011032         1.043480         1.164812
 H        -0.138657         1.156683        -0.638265
 H        -0.501124        -0.343874         0.463399
 H         2.460828         0.328595         2.092173
 H         1.535378        -1.172440         1.660383
 H         4.391325        -1.106649         1.752143
 H         3.423934        -2.345927         1.033979
 H         5.134612        -0.738989        -0.438418
 H         2.564315         2.075463        -0.808687
 H         3.368764        -0.299110        -2.468059
