19
Iteration:  4656charge 0 multiplicity 1
 C         0.136520         0.533252         0.273639
 C         1.606547         0.077288         0.164120
 C         2.169828        -0.700699         1.335781
 C         3.577690        -1.182455         0.953911
 C         4.166195        -0.373588        -0.140274
 O         4.036655         1.180276         0.146566
 C         2.868170         1.010659        -0.590601
 C         3.009854        -0.345577        -1.275958
 O         1.732259        -0.814353        -0.991042
 H         0.003324         1.525836         0.815861
 H        -0.284412         0.489460        -0.767310
 H        -0.562512        -0.259041         0.838996
 H         2.151604        -0.056896         2.232852
 H         1.471917        -1.570069         1.593170
 H         4.123041        -1.391065         1.886934
 H         3.441537        -2.238018         0.581125
 H         5.222109        -0.594572        -0.503262
 H         2.280893         1.774863        -1.136991
 H         3.454124        -0.522240        -2.348003
