19
Iteration:  4355charge 0 multiplicity 1
 C         0.222096         0.574252         0.240260
 C         1.634391         0.043355         0.179015
 C         2.215102        -0.606984         1.354411
 C         3.508292        -1.219368         0.953466
 C         4.126198        -0.330384        -0.141213
 O         3.964926         1.071449         0.219990
 C         2.743103         0.997936        -0.592194
 C         3.047142        -0.256334        -1.347380
 O         1.789411        -0.919760        -1.014800
 H         0.170041         1.378364         1.052457
 H        -0.043910         1.017559        -0.733027
 H        -0.493874        -0.264228         0.314258
 H         2.365651         0.108214         2.205217
 H         1.618283        -1.380508         1.794802
 H         4.186678        -1.203404         1.857276
 H         3.333374        -2.221694         0.625661
 H         5.162558        -0.511829        -0.475932
 H         2.444917         2.016131        -0.947609
 H         3.247822        -0.567384        -2.403261
