19
Iteration:  4833charge 0 multiplicity 1
 C         0.136806         0.536621         0.227590
 C         1.613115         0.017608         0.133899
 C         2.232984        -0.637153         1.361368
 C         3.573741        -1.222931         0.940251
 C         4.159872        -0.372568        -0.137679
 O         3.939485         1.109188         0.137976
 C         2.743248         1.059473        -0.549836
 C         3.030501        -0.233024        -1.290131
 O         1.821667        -0.929076        -0.978966
 H         0.196165         1.355800         1.031971
 H        -0.082917         1.143398        -0.661296
 H        -0.646590        -0.136390         0.659217
 H         2.357592         0.207124         2.106823
 H         1.550425        -1.280083         1.850052
 H         4.332565        -1.418460         1.753265
 H         3.460281        -2.219038         0.497413
 H         5.184843        -0.690833        -0.422605
 H         2.323249         1.953888        -0.926459
 H         3.279934        -0.346575        -2.331421
