19
Iteration:  3684charge 0 multiplicity 1
 C         0.142264         0.504583         0.285177
 C         1.592410         0.087587         0.121141
 C         2.258289        -0.591127         1.376324
 C         3.592517        -1.204711         1.018949
 C         4.134440        -0.455256        -0.217015
 O         3.956778         0.998019         0.201753
 C         2.745409         1.067381        -0.492257
 C         3.053443        -0.179328        -1.352992
 O         1.771769        -0.860568        -1.094901
 H         0.021763         0.933360         1.290451
 H        -0.048396         1.246029        -0.479477
 H        -0.616280        -0.176099         0.170307
 H         2.238470         0.095910         2.231609
 H         1.519553        -1.359191         1.796893
 H         4.368172        -1.303533         1.809875
 H         3.529531        -2.268710         0.656660
 H         5.198930        -0.750541        -0.441683
 H         2.495998         2.013043        -0.929207
 H         3.425687        -0.150712        -2.362377
