19
Iteration:  2756
 C         0.123077         0.542066         0.121105
 C         1.602612         0.083147         0.141915
 C         2.202431        -0.665520         1.404487
 C         3.630107        -1.246224         0.904993
 C         4.128287        -0.310756        -0.195628
 O         4.052958         1.069051         0.152868
 C         2.684938         1.011401        -0.443026
 C         3.005834        -0.242290        -1.287627
 O         1.789561        -0.862730        -0.913784
 H         0.060329         1.392133         0.853262
 H        -0.091181         0.882595        -1.023838
 H        -0.560124        -0.213577         0.532269
 H         2.325635        -0.040996         2.266585
 H         1.485123        -1.456539         1.679808
 H         4.402064        -1.302067         1.648868
 H         3.569271        -2.212095         0.410731
 H         5.141066        -0.741599        -0.476901
 H         2.391662         2.017591        -0.796197
 H         3.286425        -0.456216        -2.341025
