19
Iteration:  2654
 C         0.225024         0.521313         0.248520
 C         1.608153         0.000380         0.144423
 C         2.182369        -0.620886         1.386605
 C         3.605618        -1.236604         1.009928
 C         4.122535        -0.333725        -0.176002
 O         4.033414         1.076605         0.125784
 C         2.732462         1.013501        -0.508613
 C         2.937575        -0.195841        -1.322960
 O         1.791739        -0.878306        -1.045612
 H         0.016795         1.129973         1.206807
 H         0.077917         1.166987        -0.623788
 H        -0.502286        -0.320135         0.042095
 H         2.094392         0.023263         2.177516
 H         1.547254        -1.466536         1.755984
 H         4.342192        -1.185871         1.885481
 H         3.532715        -2.274957         0.814528
 H         5.240646        -0.564854        -0.422528
 H         2.258937         1.924301        -0.832533
 H         3.243002        -0.153371        -2.344343
