19
Iteration:   374charge 0 multiplicity 1
 C         0.275330         0.591071         0.103946
 C         1.613325        -0.039776         0.158253
 C         2.139702        -0.731162         1.423729
 C         3.669271        -1.095150         1.128111
 C         4.050616        -0.395143        -0.141815
 O         4.038725         1.080958         0.032175
 C         2.705221         1.008730        -0.481659
 C         3.044730        -0.243537        -1.305660
 O         1.710229        -0.885274        -1.020460
 H         0.174350         1.381788         0.753457
 H        -0.059185         1.140122        -0.886104
 H        -0.677563         0.022114         0.380534
 H         2.010416        -0.023495         2.287545
 H         1.557895        -1.615366         1.620598
 H         4.298018        -0.725348         1.939054
 H         3.885890        -2.157712         0.932208
 H         5.081021        -0.576418        -0.446872
 H         2.310370         1.967237        -0.772056
 H         3.473506        -0.459814        -2.289903
