19
Iteration:  3148charge 0 multiplicity 1
 C         0.073587         0.492440         0.312703
 C         1.598757         0.132652         0.127588
 C         2.117160        -0.565278         1.324521
 C         3.545159        -1.221724         0.892596
 C         4.137643        -0.389384        -0.253744
 O         3.987648         1.087762         0.180398
 C         2.799190         1.020963        -0.546864
 C         3.126307        -0.256779        -1.318053
 O         1.876634        -0.894193        -0.907174
 H        -0.039280         1.026114         1.292343
 H        -0.210222         1.176607        -0.427730
 H        -0.467317        -0.370475         0.479911
 H         2.039019        -0.090951         2.255910
 H         1.408816        -1.414505         1.551282
 H         4.252370        -1.410470         1.735890
 H         3.398729        -2.231527         0.442842
 H         5.190614        -0.657558        -0.529673
 H         2.422027         1.913664        -0.915295
 H         3.425583        -0.358601        -2.393195
