19
Iteration:  1390
 C         0.222080         0.458683         0.223878
 C         1.631531         0.032098         0.106711
 C         2.270382        -0.498916         1.460454
 C         3.453509        -1.240673         0.955933
 C         4.099925        -0.353176        -0.113255
 O         3.951001         1.105210         0.139328
 C         2.701082         0.965119        -0.565496
 C         3.076873        -0.255562        -1.316901
 O         1.815514        -0.900488        -1.027373
 H         0.037500         1.142335         1.064507
 H        -0.085627         1.008631        -0.657498
 H        -0.518257        -0.358562         0.409833
 H         2.658393         0.336870         1.997815
 H         1.637587        -0.976578         2.187996
 H         4.293840        -1.424036         1.686278
 H         3.086536        -2.084711         0.443576
 H         5.112905        -0.648121        -0.411684
 H         2.468816         2.055878        -0.925592
 H         3.594416        -0.391513        -2.276178
