19
Iteration:  1070charge 0 multiplicity 1
 C         0.129093         0.404641         0.163022
 C         1.637848         0.103699         0.119341
 C         2.236745        -0.477317         1.446986
 C         3.451546        -1.259730         0.925248
 C         4.084499        -0.379120        -0.226285
 O         4.046367         1.009392         0.133237
 C         2.721795         1.107940        -0.508690
 C         3.020425        -0.152091        -1.361749
 O         1.929116        -0.963611        -0.863252
 H        -0.207783         1.068411         1.035336
 H        -0.227408         0.970528        -0.748178
 H        -0.338268        -0.540695         0.461603
 H         2.384026         0.483689         1.931000
 H         1.509541        -1.129083         1.918679
 H         4.032984        -1.414927         1.885058
 H         3.248859        -2.320329         0.688708
 H         5.109075        -0.744959        -0.560711
 H         2.485221         2.193450        -0.848926
 H         3.039463        -0.248157        -2.446781
