19
Iteration:   634charge 0 multiplicity 1
 C         0.105962         0.408310         0.131403
 C         1.596185         0.164797         0.152037
 C         2.202464        -0.553075         1.460064
 C         3.503751        -1.201358         0.894840
 C         4.158917        -0.381237        -0.140493
 O         4.089396         1.050147         0.125776
 C         2.775495         1.082480        -0.611881
 C         2.971854        -0.277527        -1.286495
 O         1.838968        -0.866099        -0.840046
 H        -0.165461         1.139441         0.903207
 H        -0.376289         0.752591        -0.816432
 H        -0.161628        -0.652339         0.300827
 H         2.262933         0.217875         2.251675
 H         1.466712        -1.294551         1.688225
 H         4.103840        -1.398642         1.739662
 H         3.360479        -2.217782         0.475740
 H         5.071659        -0.715258        -0.534463
 H         2.587104         2.004577        -1.164096
 H         3.244924        -0.454016        -2.274211
