19
Iteration:  4162
 C         0.219488         0.557797         0.299106
 C         1.599799         0.050206         0.067485
 C         2.263997        -0.665664         1.410839
 C         3.602508        -1.155905         1.072658
 C         4.099424        -0.396623        -0.181864
 O         3.912209         1.010569         0.138219
 C         2.732811         1.001122        -0.530541
 C         3.099188        -0.244634        -1.322064
 O         1.760428        -0.815945        -1.073931
 H         0.062584         1.449704         0.899664
 H        -0.142201         0.810706        -0.699858
 H        -0.270420        -0.277322         0.703768
 H         2.137245         0.054492         2.216389
 H         1.492151        -1.453886         1.623473
 H         4.242291        -1.088170         1.933275
 H         3.442866        -2.226558         0.663019
 H         5.138384        -0.695651        -0.305032
 H         2.432007         1.918987        -1.097261
 H         3.312949        -0.133266        -2.427864
