19
Iteration:   920charge 0 multiplicity 1
 C         0.175128         0.434069         0.283920
 C         1.614641         0.139605         0.033559
 C         2.290342        -0.467757         1.415015
 C         3.465774        -1.226568         0.852948
 C         4.034737        -0.441082        -0.209971
 O         3.945234         1.036703         0.221401
 C         2.732908         1.044249        -0.570037
 C         3.048036        -0.175862        -1.260685
 O         1.939850        -0.986519        -0.950677
 H         0.147416         1.282255         0.843382
 H        -0.423628         0.648894        -0.684456
 H        -0.409021        -0.391028         0.762866
 H         2.476075         0.404172         2.143007
 H         1.547740        -1.056235         1.934069
 H         4.279057        -1.347027         1.564674
 H         3.051179        -2.028978         0.338723
 H         5.072153        -0.579634        -0.307425
 H         2.493697         2.110055        -0.814193
 H         3.287290        -0.301494        -2.320211
