19
Iteration:  3323charge 0 multiplicity 1
 C         0.197265         0.488126         0.214452
 C         1.610744         0.050661         0.159208
 C         2.166951        -0.651906         1.383939
 C         3.566586        -1.310323         0.894237
 C         4.086209        -0.393672        -0.081938
 O         4.067555         1.142109         0.160416
 C         2.713778         1.068643        -0.592814
 C         3.026269        -0.224468        -1.267667
 O         1.771236        -0.827066        -0.982282
 H         0.118272         1.115837         1.197771
 H        -0.034251         0.992543        -0.766352
 H        -0.412481        -0.419958         0.201976
 H         2.428280         0.161690         2.006531
 H         1.550151        -1.426969         1.921190
 H         4.286011        -1.271468         1.729513
 H         3.332289        -2.312480         0.529086
 H         5.151522        -0.599286        -0.465706
 H         2.332326         1.936187        -1.047222
 H         3.430340        -0.307662        -2.338816
