19
Iteration:  4376charge 0 multiplicity 1
 C         0.149992         0.464771         0.244497
 C         1.593766         0.096845         0.110663
 C         2.148506        -0.630779         1.512540
 C         3.524677        -1.302496         1.008413
 C         4.108443        -0.431195        -0.111528
 O         4.082674         1.151461        -0.023357
 C         2.686011         1.048474        -0.523116
 C         3.120421        -0.190057        -1.250746
 O         1.823143        -0.842102        -1.048472
 H         0.107705         1.134078         1.189777
 H        -0.225096         1.050041        -0.620669
 H        -0.449417        -0.500935         0.198021
 H         2.283572         0.197994         2.311948
 H         1.398911        -1.272665         1.961228
 H         4.254997        -1.751679         1.830907
 H         3.102398        -2.080761         0.379547
 H         5.174652        -0.753613        -0.243070
 H         2.466401         1.999364        -1.071752
 H         3.433242        -0.402783        -2.352278
