19
Iteration:   246
 C         0.235059         0.578940         0.187227
 C         1.624639         0.172829         0.122829
 C         2.093280        -0.673340         1.309492
 C         3.577031        -1.060160         1.042637
 C         4.079373        -0.383306        -0.192092
 O         3.942913         1.029724         0.109171
 C         2.693943         1.004195        -0.542945
 C         3.052746        -0.320725        -1.280481
 O         1.904017        -0.972053        -0.890306
 H         0.258614         1.422179         0.927977
 H        -0.112288         1.050224        -0.739485
 H        -0.531804        -0.127301         0.455381
 H         2.077957        -0.253663         2.298632
 H         1.397032        -1.538981         1.204155
 H         4.317329        -0.751065         1.848694
 H         3.772229        -2.159389         0.997826
 H         5.145627        -0.675303        -0.543578
 H         2.507298         1.994864        -0.992364
 H         3.361062        -0.479786        -2.388086
