19
Iteration:     2
 C         0.194341         0.571545         0.172976
 C         1.623090         0.078568         0.102544
 C         2.197042        -0.524012         1.388098
 C         3.554076        -1.185391         1.021661
 C         4.126052        -0.407111        -0.143973
 O         3.955133         1.036102         0.148412
 C         2.724947         0.993641        -0.565012
 C         3.056558        -0.285856        -1.303414
 O         1.821906        -0.924798        -0.962951
 H         0.072456         1.334261         0.921485
 H        -0.119461         1.009519        -0.822659
 H        -0.506554        -0.272788         0.413987
 H         2.332324         0.270730         2.103916
 H         1.497555        -1.228061         1.788186
 H         4.260569        -1.146737         1.907349
 H         3.431430        -2.224768         0.755517
 H         5.165309        -0.639509        -0.434236
 H         2.417365         1.906378        -0.983578
 H         3.321106        -0.460459        -2.362929
