19
Iteration:  2434charge 0 multiplicity 1
 C         0.173074         0.466825         0.348179
 C         1.566435         0.011982         0.128011
 C         2.272194        -0.559806         1.374623
 C         3.640501        -1.224014         1.006115
 C         4.180199        -0.409186        -0.097358
 O         3.970197         1.049156         0.265685
 C         2.742908         1.017324        -0.533769
 C         3.033631        -0.183116        -1.408629
 O         1.672832        -0.853629        -1.207444
 H        -0.158658         1.299131         1.005980
 H        -0.054313         0.811688        -0.654853
 H        -0.389652        -0.542708         0.465264
 H         2.474657         0.376925         1.779792
 H         1.700261        -1.194913         2.118081
 H         4.282955        -1.173742         1.872182
 H         3.524796        -2.172863         0.646166
 H         5.247398        -0.262542        -0.453462
 H         2.414471         2.006352        -0.795691
 H         3.374510        -0.489346        -2.396413
