19
Iteration:   903charge 0 multiplicity 1
 C         0.146750         0.429660         0.304918
 C         1.639160         0.116258         0.131092
 C         2.163669        -0.493081         1.359162
 C         3.434870        -1.266232         0.910256
 C         4.187224        -0.335881        -0.174750
 O         4.012116         1.093010         0.149919
 C         2.709140         1.054081        -0.574916
 C         3.090939        -0.249068        -1.344811
 O         1.866823        -0.933711        -0.928071
 H        -0.026720         1.098423         1.276648
 H        -0.281687         0.877146        -0.558939
 H        -0.294999        -0.547176         0.542494
 H         2.447107         0.199791         2.100390
 H         1.388352        -1.203866         1.753658
 H         4.010228        -1.513227         1.815095
 H         3.137908        -2.293877         0.395767
 H         5.252099        -0.627964        -0.441720
 H         2.445542         1.985079        -1.038869
 H         3.420281        -0.358630        -2.397119
