19
Iteration:  2627charge 0 multiplicity 1
 C         0.132189         0.562637         0.179281
 C         1.551316         0.010862         0.114115
 C         2.243024        -0.566130         1.379543
 C         3.718542        -1.163400         0.910065
 C         4.100464        -0.445864        -0.303428
 O         3.913853         0.939654         0.284792
 C         2.697163         1.054647        -0.444546
 C         2.979884        -0.197447        -1.316236
 O         1.861432        -0.889907        -0.983380
 H         0.018040         1.217738         0.959589
 H         0.090153         1.285619        -0.667477
 H        -0.636271        -0.164421         0.089761
 H         2.312465         0.274002         2.257731
 H         1.721911        -1.421223         1.805326
 H         4.503906        -0.760574         1.585621
 H         3.804165        -2.333360         0.889674
 H         5.080720        -0.625107        -0.576877
 H         2.320801         2.108312        -0.654716
 H         3.321883        -0.221208        -2.406040
