19
Iteration:  2834charge 0 multiplicity 1
 C         0.157413         0.591499         0.252424
 C         1.600041         0.059556         0.092633
 C         2.227461        -0.589976         1.365846
 C         3.674600        -1.244586         1.035842
 C         4.187764        -0.361914        -0.184101
 O         3.910533         0.982262         0.225672
 C         2.693322         1.032791        -0.539875
 C         3.060851        -0.202392        -1.348639
 O         1.749587        -0.901577        -1.054949
 H         0.075348         1.022758         1.255833
 H        -0.193240         1.284342        -0.669778
 H        -0.487905        -0.355525         0.221907
 H         2.371446         0.247094         2.047212
 H         1.637782        -1.345770         1.784034
 H         4.288601        -1.168191         1.863330
 H         3.551408        -2.252577         0.663734
 H         5.214793        -0.622274        -0.533862
 H         2.356584         2.076032        -0.732804
 H         3.419563        -0.370774        -2.393525
