19
Iteration:  2124
 C         0.113619         0.493092         0.237173
 C         1.588763         0.147441         0.112770
 C         2.232868        -0.641297         1.448945
 C         3.568187        -1.263883         0.898310
 C         4.175119        -0.379455        -0.194537
 O         3.983300         1.113451         0.157776
 C         2.726663         1.053092        -0.586255
 C         3.009881        -0.211682        -1.329983
 O         1.842379        -0.957055        -0.867860
 H        -0.160713         1.100192         1.018750
 H        -0.052101         1.067795        -0.737340
 H        -0.551213        -0.276115         0.075404
 H         2.582745         0.122492         2.120699
 H         1.614689        -1.354352         1.949296
 H         4.264376        -1.461288         1.747972
 H         3.289733        -2.177633         0.361090
 H         5.220227        -0.474229        -0.538575
 H         2.211590         2.049257        -0.914037
 H         3.407647        -0.238109        -2.424050
