19
Iteration:   496
 C         0.129547         0.510868         0.082670
 C         1.620097         0.093475         0.143024
 C         2.244471        -0.595620         1.372590
 C         3.704611        -1.095218         1.093774
 C         4.160250        -0.479681        -0.213410
 O         3.961965         1.030964         0.238511
 C         2.710962         0.999740        -0.542057
 C         2.972940        -0.313591        -1.313277
 O         1.717492        -0.816003        -1.004456
 H        -0.149367         1.224852         0.842451
 H        -0.231784         1.058454        -0.876831
 H        -0.513147        -0.394865         0.240508
 H         2.425695         0.154619         2.147640
 H         1.663044        -1.411987         1.850944
 H         4.548083        -0.775519         1.764778
 H         3.725487        -2.206879         0.983944
 H         5.208283        -0.718603        -0.614913
 H         2.523116         2.031933        -0.906540
 H         3.425985        -0.612057        -2.325645
