19
Iteration:  4835
 C         0.120451         0.536850         0.242571
 C         1.617897         0.003894         0.138736
 C         2.209331        -0.633445         1.353695
 C         3.579227        -1.221772         0.931372
 C         4.157587        -0.351972        -0.131683
 O         3.956483         1.100996         0.137761
 C         2.737779         1.059518        -0.568902
 C         3.026394        -0.231895        -1.311757
 O         1.842559        -0.928363        -0.961577
 H         0.146617         1.374633         1.019541
 H        -0.092868         1.117952        -0.696919
 H        -0.663822        -0.080662         0.692606
 H         2.382756         0.180670         2.121210
 H         1.534338        -1.301467         1.847884
 H         4.272797        -1.468094         1.726137
 H         3.452294        -2.162139         0.508307
 H         5.139917        -0.745531        -0.410514
 H         2.335652         1.985056        -0.834572
 H         3.342162        -0.369597        -2.314772
