19
Iteration:  2722charge 0 multiplicity 1
 C         0.260287         0.574979         0.210353
 C         1.646568        -0.033246         0.138043
 C         2.257569        -0.557025         1.407027
 C         3.622086        -1.253925         0.950888
 C         4.021030        -0.392559        -0.195621
 O         3.929980         1.040357         0.263077
 C         2.625950         1.013384        -0.449329
 C         3.030120        -0.221532        -1.342630
 O         1.816479        -0.895089        -1.114723
 H         0.304050         1.531411         0.866810
 H        -0.266738         0.947657        -0.824709
 H        -0.457687        -0.144753         0.612307
 H         2.565840         0.240930         1.999650
 H         1.518504        -1.101046         2.070777
 H         4.394866        -1.035353         1.703223
 H         3.763595        -2.306862         0.774211
 H         5.083665        -0.518532        -0.636575
 H         2.335647         1.993451        -0.821825
 H         3.264684        -0.271112        -2.414190
