19
Iteration:  2763charge 0 multiplicity 1
 C         0.144235         0.518250         0.169416
 C         1.577741         0.136745         0.172671
 C         2.149589        -0.690598         1.364041
 C         3.607084        -1.238018         0.868602
 C         4.105764        -0.359950        -0.221241
 O         4.055807         1.100317         0.167772
 C         2.736074         1.056997        -0.496814
 C         3.037564        -0.244460        -1.268993
 O         1.810589        -0.913602        -0.880656
 H         0.036069         1.400691         0.847369
 H        -0.131171         0.879656        -0.777113
 H        -0.572682        -0.252989         0.391923
 H         2.373607         0.060668         2.131389
 H         1.340061        -1.502913         1.568845
 H         4.400774        -1.148039         1.737593
 H         3.479997        -2.249445         0.410363
 H         5.196935        -0.691668        -0.549138
 H         2.324024         2.008433        -0.802526
 H         3.412855        -0.409078        -2.270059
