19
Iteration:  4638charge 0 multiplicity 1
 C         0.164324         0.541261         0.300984
 C         1.611024         0.106784         0.098787
 C         2.172316        -0.629296         1.347217
 C         3.614648        -1.201538         1.035311
 C         4.099160        -0.409426        -0.188548
 O         4.007573         1.002321         0.147962
 C         2.694403         1.062465        -0.582807
 C         3.064436        -0.225045        -1.310376
 O         1.793948        -0.899021        -1.027815
 H         0.030683         1.375147         1.003016
 H        -0.333168         0.943989        -0.557594
 H        -0.402894        -0.299210         0.598961
 H         2.164249         0.083212         2.260521
 H         1.494667        -1.426035         1.538053
 H         4.286339        -0.769351         1.820721
 H         3.733080        -2.252850         0.917410
 H         5.150050        -0.762482        -0.428845
 H         2.648626         2.091634        -0.848377
 H         3.376737        -0.353950        -2.310003
