19
Iteration:  3376charge 0 multiplicity 1
 C         0.154753         0.554919         0.214851
 C         1.655997         0.079746         0.112259
 C         2.251330        -0.627645         1.319070
 C         3.600906        -1.199336         0.954327
 C         4.104416        -0.377452        -0.249863
 O         3.915916         1.002997         0.268921
 C         2.732562         1.114986        -0.417702
 C         3.036946        -0.311016        -1.355612
 O         1.781106        -0.935372        -1.012829
 H         0.026990         1.421071         0.922730
 H         0.089754         1.184353        -0.658572
 H        -0.477766        -0.315731         0.290289
 H         2.386531         0.181834         2.033393
 H         1.536945        -1.378369         1.794683
 H         4.360055        -1.007988         1.761122
 H         3.484813        -2.294785         1.023685
 H         5.193749        -0.337891        -0.657054
 H         2.551946         2.120947        -0.746670
 H         3.264689        -0.245945        -2.459150
