19
Iteration:  2963
 C         0.154883         0.578244         0.257207
 C         1.633601         0.041512         0.171615
 C         2.187009        -0.703919         1.379717
 C         3.557879        -1.220415         0.979154
 C         4.177782        -0.313678        -0.062312
 O         4.040639         1.126031         0.047625
 C         2.690589         1.045652        -0.507676
 C         3.024866        -0.242155        -1.324879
 O         1.783880        -0.913478        -1.044964
 H         0.077131         1.336919         1.158314
 H         0.056905         1.149883        -0.601061
 H        -0.550949        -0.227536         0.222563
 H         2.288694        -0.077506         2.258059
 H         1.536031        -1.578275         1.777518
 H         4.062564        -1.681449         1.907465
 H         3.392060        -2.126798         0.312149
 H         5.192407        -0.678460        -0.404992
 H         2.163453         1.967462        -0.757463
 H         3.489950        -0.473830        -2.304765
