19
Iteration:  3020charge 0 multiplicity 1
 C         0.190226         0.476669         0.215651
 C         1.589333         0.063752         0.092760
 C         2.248608        -0.546216         1.365158
 C         3.643304        -1.230461         0.980480
 C         4.121470        -0.444513        -0.204008
 O         3.956853         1.009738         0.188925
 C         2.701074         0.997274        -0.467273
 C         3.040436        -0.191415        -1.235839
 O         1.759762        -0.825167        -1.050869
 H         0.181221         1.205479         1.018287
 H        -0.236465         1.105491        -0.622471
 H        -0.621610        -0.243403         0.243392
 H         2.449994         0.328979         2.060717
 H         1.609775        -1.298001         1.787620
 H         4.306542        -1.069035         1.823573
 H         3.584539        -2.316503         0.711857
 H         5.110094        -0.734283        -0.606384
 H         2.320296         1.965689        -0.967294
 H         3.431607        -0.173080        -2.292189
