19
Iteration:  2574charge 0 multiplicity 1
 C         0.140148         0.472418         0.392304
 C         1.589556         0.034318         0.060860
 C         2.140257        -0.664443         1.401317
 C         3.455015        -1.314590         0.970215
 C         4.169885        -0.307238        -0.170965
 O         4.009813         1.149862         0.128750
 C         2.722901         1.088829        -0.618528
 C         3.112292        -0.199167        -1.330357
 O         1.879318        -0.907777        -0.990267
 H         0.243442         1.320441         1.020228
 H        -0.364308         0.880527        -0.456926
 H        -0.450726        -0.321109         0.916994
 H         2.418086         0.094776         2.124126
 H         1.570985        -1.477968         1.789186
 H         4.067965        -1.681440         1.843388
 H         3.318338        -2.131385         0.207908
 H         5.196071        -0.570580        -0.340020
 H         2.318390         2.061230        -1.063814
 H         3.514941        -0.137775        -2.389253
