19
Iteration:  1168charge 0 multiplicity 1
 C         0.319272         0.693113         0.293501
 C         1.560134         0.009861         0.108062
 C         2.132422        -0.832944         1.378306
 C         3.581510        -1.206944         1.047482
 C         4.129311        -0.334111        -0.096875
 O         3.951362         1.221733        -0.004967
 C         2.682180         0.971664        -0.572510
 C         3.080119        -0.268919        -1.267673
 O         1.817328        -0.946460        -1.011610
 H         0.364755         1.420021         1.151779
 H        -0.147978         1.171432        -0.605128
 H        -0.498332         0.007340         0.461183
 H         2.198781        -0.103319         2.170444
 H         1.351141        -1.573452         1.452836
 H         4.180098        -1.207408         1.951974
 H         3.644084        -2.289829         0.889335
 H         5.225166        -0.511252        -0.311192
 H         2.124147         1.892610        -0.998240
 H         3.457435        -0.361956        -2.259637
