19
Iteration:   198
 C         0.256161         0.561261         0.261713
 C         1.612070         0.014091         0.074527
 C         2.280965        -0.454073         1.344577
 C         3.544548        -1.199904         1.041776
 C         4.156457        -0.387952        -0.064750
 O         3.868594         1.068664         0.190284
 C         2.649449         0.934279        -0.607265
 C         3.110980        -0.319809        -1.246299
 O         1.767785        -0.900007        -1.123645
 H         0.178504         1.406128         0.902674
 H        -0.166968         0.882971        -0.772234
 H        -0.465388        -0.260604         0.575385
 H         2.581533         0.468058         1.906411
 H         1.710626        -1.107373         1.993410
 H         4.221011        -1.249717         1.859178
 H         3.351942        -2.215268         0.787547
 H         5.226036        -0.574493        -0.305526
 H         2.295760         1.855651        -1.124837
 H         3.568798        -0.453121        -2.214645
