19
Iteration:  1907charge 0 multiplicity 1
 C         0.196001         0.605157         0.179943
 C         1.580710         0.064587         0.205027
 C         2.199255        -0.701762         1.384539
 C         3.649181        -1.203124         1.019333
 C         4.185810        -0.378915        -0.199507
 O         3.938614         1.069013         0.111099
 C         2.714443         1.033203        -0.516103
 C         3.082345        -0.268807        -1.284082
 O         1.724074        -0.872994        -1.002313
 H         0.015645         1.288992         1.006880
 H         0.102224         1.172089        -0.864568
 H        -0.560248        -0.175664         0.264583
 H         2.167596        -0.262071         2.401214
 H         1.504358        -1.647329         1.420580
 H         4.397542        -0.983358         1.800096
 H         3.678014        -2.255462         0.657708
 H         5.275086        -0.345114        -0.367282
 H         2.269293         1.918946        -0.815659
 H         3.269117        -0.422275        -2.384905
