19
Iteration:  1614
 C         0.186402         0.597288         0.272709
 C         1.614551         0.049431         0.066603
 C         2.221437        -0.641973         1.336930
 C         3.671340        -1.164383         1.088501
 C         4.123933        -0.352983        -0.106640
 O         3.911730         1.071717         0.196138
 C         2.684200         0.943232        -0.641645
 C         3.093147        -0.259748        -1.300035
 O         1.745842        -0.908373        -1.067933
 H         0.174033         1.122773         1.230448
 H        -0.010097         1.397386        -0.542062
 H        -0.636849        -0.061445         0.173822
 H         2.240105         0.179785         1.957306
 H         1.579835        -1.411106         1.764796
 H         4.366185        -1.121877         1.890166
 H         3.650967        -2.305266         0.939614
 H         5.129134        -0.658668        -0.490574
 H         2.372022         1.979890        -1.010450
 H         3.486241        -0.558629        -2.236048
