19
Iteration:  4627
 C         0.187462         0.570149         0.286332
 C         1.630032         0.055367         0.067640
 C         2.182139        -0.567220         1.326045
 C         3.633750        -1.139103         1.106786
 C         4.120883        -0.444869        -0.196728
 O         3.962085         0.937997         0.151788
 C         2.699396         1.004901        -0.504558
 C         2.990891        -0.183971        -1.396323
 O         1.850417        -0.873858        -1.020076
 H         0.207008         1.137084         1.225387
 H        -0.154257         1.042207        -0.607293
 H        -0.412238        -0.270390         0.502919
 H         2.051935         0.187571         2.200115
 H         1.514557        -1.365849         1.539582
 H         4.349004        -1.037212         1.970305
 H         3.513396        -2.190628         1.031267
 H         5.154174        -0.612656        -0.645112
 H         2.181088         1.873491        -0.857117
 H         3.280508        -0.108296        -2.414239
