19
Iteration:  1835
 C         0.138276         0.418994         0.247351
 C         1.593346         0.135175         0.112751
 C         2.263253        -0.583545         1.388392
 C         3.502953        -1.359662         0.972928
 C         4.171851        -0.337702        -0.067962
 O         3.984141         1.142278         0.114493
 C         2.782403         1.097772        -0.607306
 C         3.062829        -0.279229        -1.303572
 O         1.757828        -0.849562        -0.972790
 H        -0.047860         1.240499         0.975494
 H        -0.196658         0.626021        -0.741565
 H        -0.373943        -0.407357         0.813021
 H         2.431524         0.091347         2.208063
 H         1.442882        -1.213951         1.687891
 H         4.265509        -1.509823         1.748146
 H         3.284492        -2.323086         0.400925
 H         5.152408        -0.753868        -0.497300
 H         2.527629         2.193407        -1.141182
 H         3.480403        -0.491829        -2.302463
