19
Iteration:  2278
 C         0.185181         0.447523         0.145648
 C         1.604878         0.058292         0.178144
 C         2.319889        -0.563550         1.403856
 C         3.572800        -1.238482         0.924755
 C         4.163024        -0.441313        -0.221067
 O         3.978661         1.059813         0.154480
 C         2.632512         1.020324        -0.501682
 C         2.993114        -0.182934        -1.252435
 O         1.813310        -0.819607        -0.932829
 H         0.020230         1.191614         0.931966
 H        -0.113327         1.040322        -0.840997
 H        -0.507187        -0.383826         0.307945
 H         2.399609         0.170810         2.209002
 H         1.573800        -1.293331         1.735202
 H         4.229287        -1.414269         1.770715
 H         3.435399        -2.225638         0.508685
 H         5.168719        -0.753217        -0.613854
 H         2.298568         2.091307        -0.917242
 H         3.186113        -0.234900        -2.430554
