19
Iteration:  1970
 C         0.157649         0.470809         0.274447
 C         1.610667         0.089605         0.105912
 C         2.288636        -0.440940         1.314468
 C         3.606843        -1.244355         0.974114
 C         4.128965        -0.375024        -0.212375
 O         3.886590         0.971939         0.270584
 C         2.715404         1.066500        -0.529285
 C         3.079565        -0.265793        -1.376005
 O         1.786565        -0.913171        -1.028613
 H         0.073416         1.051968         1.201304
 H        -0.148645         1.117428        -0.540956
 H        -0.487141        -0.387598         0.424781
 H         2.468736         0.265536         2.121832
 H         1.544779        -1.103050         1.606679
 H         4.397844        -1.094363         1.747684
 H         3.436342        -2.318563         1.012367
 H         5.136309        -0.688224        -0.379469
 H         2.430528         2.087008        -0.892457
 H         3.338822        -0.255680        -2.462675
