19
Iteration:  4031charge 0 multiplicity 1
 C         0.234260         0.458084         0.304517
 C         1.670573         0.111442         0.075822
 C         2.220422        -0.588743         1.291730
 C         3.579606        -1.168278         1.019618
 C         4.049337        -0.373864        -0.205177
 O         3.951394         0.954238         0.221370
 C         2.762771         1.102972        -0.563210
 C         3.056630        -0.265760        -1.304797
 O         1.741428        -0.867477        -1.036832
 H         0.149234         0.948185         1.337760
 H        -0.096649         1.323731        -0.406381
 H        -0.445114        -0.368812         0.068918
 H         2.081626         0.155874         2.137339
 H         1.422085        -1.358815         1.650841
 H         4.228863        -0.971460         1.885281
 H         3.625574        -2.315281         1.118372
 H         5.092483        -0.647514        -0.523039
 H         2.460313         2.136408        -0.949157
 H         3.528769        -0.374903        -2.370286
