19
Iteration:   676
 C         0.255110         0.676237         0.302639
 C         1.540237        -0.040027         0.036883
 C         2.177132        -0.595705         1.333213
 C         3.645850        -1.092977         1.130073
 C         4.089294        -0.379489        -0.164398
 O         3.881634         0.991156         0.190976
 C         2.693389         0.967012        -0.571992
 C         3.052932        -0.249111        -1.343802
 O         1.838184        -0.994868        -1.125047
 H         0.499151         1.020361         1.367367
 H         0.109288         1.606229        -0.138706
 H        -0.601842         0.053838         0.283265
 H         2.439044         0.256112         1.894219
 H         1.567512        -1.255717         1.987238
 H         4.435879        -0.891180         1.854960
 H         3.740872        -2.132222         1.086883
 H         5.149885        -0.508201        -0.372911
 H         2.321877         1.881648        -1.022111
 H         3.382831        -0.187557        -2.348455
