19
Iteration:  1394
 C         0.207130         0.462035         0.217510
 C         1.617409         0.010971         0.101102
 C         2.304548        -0.505797         1.484574
 C         3.477037        -1.228158         0.963691
 C         4.105203        -0.354900        -0.108715
 O         3.937036         1.100871         0.141583
 C         2.697284         0.972343        -0.537414
 C         3.101185        -0.261493        -1.336448
 O         1.786143        -0.886751        -1.037928
 H         0.081801         1.254065         1.053211
 H         0.031544         1.075142        -0.669173
 H        -0.484085        -0.394754         0.301328
 H         2.654600         0.495507         1.897767
 H         1.597029        -1.011549         2.181130
 H         4.271108        -1.413525         1.709723
 H         3.064189        -2.246057         0.552518
 H         5.047375        -0.750708        -0.511556
 H         2.350176         1.998947        -0.930491
 H         3.711867        -0.346234        -2.326578
