19
Iteration:   101
 C         0.285277         0.684790         0.291409
 C         1.561663         0.067478         0.030255
 C         2.126403        -0.514705         1.311411
 C         3.590515        -1.113524         1.021339
 C         4.204570        -0.408434        -0.181770
 O         3.852551         1.063397         0.216604
 C         2.724119         0.947228        -0.579541
 C         3.070647        -0.353387        -1.326736
 O         1.829141        -1.043099        -0.986794
 H         0.298146         1.128006         1.168361
 H        -0.166673         1.421863        -0.462792
 H        -0.429201        -0.190046         0.358663
 H         2.183073         0.205067         2.132082
 H         1.460965        -1.312011         1.554292
 H         4.139288        -0.805837         1.949451
 H         3.686575        -2.148932         1.040428
 H         5.312335        -0.567924        -0.389254
 H         2.500908         1.839110        -1.103616
 H         3.362411        -0.387209        -2.395336
