19
Iteration:  3761
 C         0.263834         0.596032         0.241630
 C         1.608447         0.007549         0.085018
 C         2.275638        -0.602727         1.318682
 C         3.596879        -1.228084         1.033380
 C         4.174976        -0.453015        -0.191126
 O         3.888621         0.997235         0.270896
 C         2.682260         1.000009        -0.480263
 C         2.983981        -0.166202        -1.302105
 O         1.762755        -0.834848        -1.127557
 H         0.308457         1.522923         0.837178
 H        -0.258001         0.756301        -0.726125
 H        -0.273645        -0.144917         0.799783
 H         2.311465         0.365471         1.898219
 H         1.709848        -1.412409         1.913365
 H         4.357970        -1.052013         1.889037
 H         3.418082        -2.317753         0.687543
 H         5.228563        -0.812055        -0.577588
 H         2.299716         1.953773        -0.845629
 H         3.454667        -0.075127        -2.305452
