19
Iteration:  4623
 C         0.223684         0.558063         0.257852
 C         1.621485         0.040997         0.111455
 C         2.188201        -0.549734         1.318530
 C         3.613784        -1.097872         1.133372
 C         4.141698        -0.491972        -0.223914
 O         3.933011         0.966506         0.166228
 C         2.714409         0.985833        -0.460919
 C         2.995593        -0.177620        -1.413829
 O         1.832439        -0.884236        -1.041255
 H         0.346806         1.101983         1.246248
 H        -0.027270         1.278626        -0.612079
 H        -0.510840        -0.375474         0.485890
 H         2.178125         0.207966         2.136053
 H         1.535529        -1.454854         1.665229
 H         4.365593        -1.045710         1.930938
 H         3.350501        -2.172165         0.935262
 H         5.222470        -0.559259        -0.653528
 H         2.103389         1.828660        -0.881327
 H         3.220690        -0.113873        -2.597332
