19
Iteration:  3576
 C         0.221475         0.627480         0.240881
 C         1.602758         0.002740         0.115069
 C         2.224967        -0.619978         1.380471
 C         3.640908        -1.226213         0.979086
 C         4.121935        -0.452670        -0.285639
 O         3.883481         1.001814         0.223848
 C         2.693847         0.995878        -0.417725
 C         3.019135        -0.163411        -1.345629
 O         1.816949        -0.874721        -1.079309
 H         0.299686         1.451089         1.035275
 H        -0.110914         0.977207        -0.806145
 H        -0.501246        -0.087880         0.601604
 H         2.193485         0.178607         2.108486
 H         1.583866        -1.471642         1.711686
 H         4.275539        -0.789420         1.749869
 H         3.803729        -2.286349         0.952510
 H         5.269370        -0.555647        -0.379766
 H         2.350601         1.950272        -0.609488
 H         3.341112        -0.144091        -2.351569
