19
Iteration:  1572
 C         0.166496         0.529096         0.200355
 C         1.613788         0.011918         0.118818
 C         2.161333        -0.565274         1.395109
 C         3.553622        -1.182933         1.062023
 C         4.069951        -0.444876        -0.166904
 O         4.032804         1.059411         0.109961
 C         2.736075         1.104154        -0.554546
 C         3.063799        -0.240704        -1.327267
 O         1.823251        -0.885647        -0.950542
 H        -0.126640         0.915143         1.137149
 H        -0.164243         0.957437        -0.798820
 H        -0.378514        -0.406722         0.140901
 H         2.296254         0.153301         2.183928
 H         1.555819        -1.366838         1.834035
 H         4.246847        -1.204690         1.854665
 H         3.601064        -2.233720         0.624550
 H         5.110842        -0.625470        -0.558490
 H         2.391994         1.959494        -1.036342
 H         3.407625        -0.233313        -2.333078
