19
Iteration:  1304charge 0 multiplicity 1
 C         0.278026         0.657742         0.242390
 C         1.576447        -0.054188         0.136162
 C         2.158869        -0.727396         1.404602
 C         3.651139        -1.055612         1.064479
 C         4.108154        -0.395563        -0.218984
 O         3.931289         1.065321         0.143734
 C         2.664660         0.956351        -0.547231
 C         3.024571        -0.223044        -1.280024
 O         1.785794        -0.937582        -1.091439
 H         0.498802         1.461719         0.997854
 H         0.197290         1.208670        -0.675013
 H        -0.605787        -0.016674         0.437781
 H         2.254842         0.043537         2.152778
 H         1.595636        -1.616666         1.675766
 H         4.346450        -0.756121         1.939920
 H         3.878656        -2.123078         1.079322
 H         5.119537        -0.581079        -0.563518
 H         2.315146         2.048473        -0.790005
 H         3.392938        -0.390934        -2.385441
