19
Iteration:    48
 C         0.214978         0.544094         0.121080
 C         1.640870         0.035498         0.154926
 C         2.211173        -0.524986         1.394835
 C         3.559255        -1.216562         1.062731
 C         4.122349        -0.394584        -0.108388
 O         4.033267         1.106239         0.123217
 C         2.723090         0.975506        -0.528387
 C         3.002735        -0.310559        -1.334823
 O         1.731504        -0.872198        -0.998938
 H         0.039346         1.545783         0.447843
 H        -0.044824         0.437956        -1.007206
 H        -0.479061        -0.173812         0.682531
 H         2.383320         0.281490         2.084401
 H         1.540320        -1.211559         1.847498
 H         4.283544        -1.246759         1.981829
 H         3.434047        -2.221722         0.708942
 H         5.187629        -0.683940        -0.319716
 H         2.346342         1.886427        -0.844284
 H         3.395910        -0.429001        -2.385297
