19
Iteration:   129charge 0 multiplicity 1
 C         0.198313         0.567872         0.080036
 C         1.534632        -0.003594         0.149346
 C         2.323172        -0.617457         1.491220
 C         3.707533        -1.095408         1.175894
 C         4.106723        -0.432237        -0.092633
 O         3.957072         1.007806         0.080255
 C         2.719864         1.061171        -0.559188
 C         2.986467        -0.309664        -1.325694
 O         1.716947        -0.862848        -1.113434
 H        -0.134991         1.344260         0.980430
 H         0.090501         1.139874        -0.800468
 H        -0.561084        -0.191264        -0.027124
 H         2.394678         0.300068         2.132512
 H         1.618666        -1.340058         2.018322
 H         4.269631        -0.969941         2.100691
 H         3.753202        -2.270656         1.015880
 H         5.072933        -0.742465        -0.411284
 H         2.385097         2.134037        -0.895650
 H         3.420015        -0.547007        -2.288281
