19
Iteration:  2616charge 0 multiplicity 1
 C         0.158085         0.560085         0.149674
 C         1.620060         0.024864         0.151125
 C         2.286914        -0.625212         1.324746
 C         3.678262        -1.244194         0.998214
 C         4.139435        -0.346202        -0.245321
 O         3.938460         0.992864         0.267606
 C         2.685319         1.027231        -0.492733
 C         2.971263        -0.145180        -1.331736
 O         1.779249        -0.901619        -0.965624
 H         0.024042         1.104766         1.013000
 H        -0.079368         1.097480        -0.799584
 H        -0.589322        -0.184157         0.225402
 H         2.415793         0.272028         2.128672
 H         1.604069        -1.382658         1.716487
 H         4.455858        -1.099855         1.808510
 H         3.529964        -2.396969         0.823565
 H         5.035887        -0.434436        -0.742620
 H         2.523453         2.079230        -0.875440
 H         3.140003        -0.307719        -2.443576
