19
Iteration:  1682
 C         0.143364         0.508613         0.151987
 C         1.625863         0.097936         0.105462
 C         2.275440        -0.514325         1.383510
 C         3.673012        -1.222229         1.019215
 C         4.125353        -0.454355        -0.204160
 O         3.948045         1.004836         0.235104
 C         2.678515         1.050334        -0.486694
 C         3.057148        -0.273568        -1.335394
 O         1.756441        -0.847293        -1.000604
 H        -0.168684         1.483577         0.499206
 H        -0.223081         0.417880        -0.923467
 H        -0.492373        -0.320642         0.568985
 H         2.593981         0.256201         2.085992
 H         1.530453        -1.123088         1.862872
 H         4.199876        -1.195158         1.993237
 H         3.627285        -2.370444         0.803946
 H         5.211017        -0.573042        -0.589987
 H         2.208320         1.956399        -0.940457
 H         3.314527        -0.133461        -2.387533
