19
Iteration:  3886charge 0 multiplicity 1
 C         0.205001         0.568027         0.321398
 C         1.608477         0.050020         0.071876
 C         2.141217        -0.649244         1.327308
 C         3.508795        -1.229538         0.949715
 C         4.161322        -0.409614        -0.189717
 O         4.016196         1.087631         0.197372
 C         2.697848         1.073190        -0.579204
 C         3.100345        -0.223657        -1.301085
 O         1.814769        -0.916367        -0.979439
 H         0.160191         0.994778         1.321913
 H        -0.109845         1.328976        -0.333413
 H        -0.469047        -0.331742         0.274722
 H         2.172612         0.111401         2.208201
 H         1.386634        -1.373546         1.566221
 H         4.230239        -1.214343         1.809393
 H         3.394406        -2.271795         0.612503
 H         5.161680        -0.556403        -0.426541
 H         2.394276         2.023761        -1.056690
 H         3.327717        -0.373094        -2.339739
