19
Iteration:    32charge 0 multiplicity 1
 C         0.129525         0.532249         0.069894
 C         1.566158         0.104903         0.075517
 C         2.256760        -0.474241         1.441455
 C         3.626119        -1.091710         1.007224
 C         4.103158        -0.453075        -0.243899
 O         3.961769         0.882418         0.233193
 C         2.734675         1.055747        -0.511478
 C         3.024648        -0.229013        -1.262488
 O         1.835697        -0.972847        -0.968792
 H         0.150497         1.563336         0.543318
 H        -0.311361         0.643932        -0.846553
 H        -0.477911        -0.048371         0.693341
 H         2.346032         0.411635         2.130099
 H         1.556278        -1.255097         1.883369
 H         4.343503        -0.933023         1.712768
 H         3.478988        -2.204303         0.941658
 H         5.062810        -0.679566        -0.666244
 H         2.540728         2.141829        -0.914360
 H         3.276111        -0.314256        -2.291629
