19
Iteration:   825charge 0 multiplicity 1
 C         0.204056         0.666838         0.274654
 C         1.644017         0.058243         0.187429
 C         2.093942        -0.758598         1.343027
 C         3.621875        -1.218162         1.003465
 C         4.102471        -0.367165        -0.164969
 O         4.001891         1.193262         0.059069
 C         2.698659         1.051169        -0.576926
 C         3.065732        -0.268519        -1.266253
 O         1.808771        -0.998091        -0.979336
 H        -0.002482         1.059645         1.284807
 H        -0.059803         1.367055        -0.509232
 H        -0.436838        -0.232166         0.113129
 H         2.007038        -0.184379         2.253118
 H         1.528565        -1.660982         1.552621
 H         4.232514        -0.967736         1.808821
 H         3.519317        -2.272367         0.638189
 H         5.179961        -0.625756        -0.352356
 H         2.418873         1.975203        -1.028882
 H         3.491706        -0.316791        -2.314777
