19
Iteration:  2719charge 0 multiplicity 1
 C         0.253004         0.592228         0.214895
 C         1.630804        -0.046928         0.095430
 C         2.269886        -0.556716         1.405693
 C         3.598432        -1.248316         0.940968
 C         4.016609        -0.380539        -0.201202
 O         3.928930         1.025889         0.265608
 C         2.646587         1.031370        -0.461803
 C         3.043573        -0.233287        -1.331611
 O         1.828127        -0.898471        -1.095533
 H         0.271056         1.465380         0.928957
 H        -0.253463         0.917060        -0.636042
 H        -0.391219        -0.184118         0.685272
 H         2.594253         0.322440         1.976537
 H         1.522976        -1.226170         1.992981
 H         4.350928        -0.930875         1.793144
 H         3.655608        -2.347066         0.756951
 H         5.086950        -0.436625        -0.652176
 H         2.297585         1.999014        -0.811782
 H         3.259686        -0.290373        -2.377347
