19
Iteration:  4477
 C         0.234718         0.662620         0.276444
 C         1.606754         0.099473         0.195093
 C         2.084145        -0.751715         1.340370
 C         3.512394        -1.215068         0.918086
 C         4.177468        -0.343314        -0.156701
 O         3.954546         1.098495         0.070701
 C         2.695912         1.013184        -0.583201
 C         3.057321        -0.222910        -1.313860
 O         1.926378        -0.957010        -0.903764
 H         0.165205         1.618758         0.888508
 H        -0.280145         0.800312        -0.735980
 H        -0.232962        -0.180726         0.785979
 H         2.063429        -0.129906         2.245133
 H         1.403960        -1.605365         1.481484
 H         4.042056        -1.264011         1.880303
 H         3.462738        -2.254707         0.540969
 H         5.188270        -0.538749        -0.176732
 H         2.309118         1.928349        -1.047107
 H         3.381134        -0.315022        -2.321422
