19
Iteration:  3273charge 0 multiplicity 1
 C         0.206990         0.613407         0.315562
 C         1.611911        -0.019882         0.032977
 C         2.235929        -0.637533         1.326145
 C         3.575220        -1.217967         1.012288
 C         4.113988        -0.386373        -0.162350
 O         3.914470         1.067318         0.212696
 C         2.714931         0.981584        -0.487409
 C         3.077089        -0.188872        -1.334608
 O         1.788280        -0.900690        -1.091162
 H         0.503374         1.265088         1.028245
 H        -0.235233         0.967340        -0.612396
 H        -0.479803        -0.127506         0.708172
 H         2.493908         0.155938         2.122585
 H         1.558655        -1.346316         1.762340
 H         4.175060        -1.124340         1.903872
 H         3.324799        -2.261126         0.751149
 H         5.036096        -0.573092        -0.639501
 H         2.381728         2.055201        -0.795970
 H         3.578363        -0.184683        -2.280938
