19
Iteration:   384
 C         0.227086         0.679534         0.118719
 C         1.600359         0.036901         0.136273
 C         2.210054        -0.689611         1.365560
 C         3.668506        -1.047811         1.163954
 C         4.120435        -0.441828        -0.201523
 O         3.968387         1.012515         0.114816
 C         2.665494         0.969819        -0.472639
 C         2.959607        -0.233309        -1.333844
 O         1.815703        -0.938912        -1.041287
 H         0.235451         1.379664         0.883275
 H         0.004403         1.072298        -0.955646
 H        -0.470998        -0.166626         0.436353
 H         2.043998        -0.176529         2.355123
 H         1.610428        -1.571447         1.419655
 H         4.339451        -0.531003         1.855550
 H         3.714634        -2.157798         1.376490
 H         5.073862        -0.792403        -0.529745
 H         2.258383         1.945995        -0.646602
 H         3.243284        -0.240149        -2.365397
