19
Iteration:  1543charge 0 multiplicity 1
 C         0.192209         0.494300         0.144883
 C         1.622220         0.049354         0.230086
 C         2.195924        -0.529056         1.438582
 C         3.460805        -1.203121         0.919218
 C         4.162630        -0.357707        -0.119236
 O         4.061491         1.100886         0.078715
 C         2.671608         0.985917        -0.495160
 C         3.099963        -0.275793        -1.274865
 O         1.768213        -0.887978        -0.992428
 H        -0.189589         1.395625         0.750700
 H        -0.045024         0.694857        -0.904180
 H        -0.435733        -0.455641         0.370755
 H         2.577912         0.281686         2.231010
 H         1.593270        -1.380993         1.906013
 H         4.126999        -1.573222         1.811287
 H         3.419956        -2.142316         0.360425
 H         5.194863        -0.603354        -0.362971
 H         2.175187         1.926113        -0.969710
 H         3.461328        -0.283611        -2.365276
