19
Iteration:  3859
 C         0.189089         0.663085         0.174240
 C         1.578219         0.011348         0.127780
 C         2.352650        -0.613999         1.428580
 C         3.690726        -1.236371         0.996285
 C         4.188897        -0.419705        -0.179497
 O         3.881888         0.993994         0.269804
 C         2.646802         1.022126        -0.519785
 C         3.048492        -0.250994        -1.319654
 O         1.695224        -0.865484        -1.095596
 H        -0.138963         1.093935         1.143654
 H         0.072743         1.498118        -0.600681
 H        -0.473224        -0.147558        -0.069027
 H         2.502638         0.200990         2.118512
 H         1.639147        -1.407595         1.809405
 H         4.366700        -1.059783         1.901557
 H         3.519508        -2.307625         0.611342
 H         5.270424        -0.361223        -0.635932
 H         2.315956         2.018292        -0.848772
 H         3.363826        -0.466896        -2.382291
