19
Iteration:  4107charge 0 multiplicity 1
 C         0.234964         0.561494         0.247987
 C         1.622500         0.140859         0.167928
 C         2.188924        -0.563689         1.404326
 C         3.542710        -1.241485         0.902236
 C         4.171255        -0.327374        -0.228307
 O         3.912597         1.008199         0.179210
 C         2.668773         1.006580        -0.516061
 C         3.060405        -0.261893        -1.331417
 O         1.863735        -0.892116        -0.961672
 H         0.101823         1.418940         0.927862
 H        -0.111796         0.557689        -0.780560
 H        -0.410348        -0.185453         0.664633
 H         2.218323        -0.074473         2.402226
 H         1.371217        -1.345330         1.334213
 H         4.178190        -1.398255         1.787682
 H         3.487721        -2.305712         0.458480
 H         5.222566        -0.645891        -0.323607
 H         2.277209         1.983932        -0.955120
 H         3.388471        -0.403908        -2.425879
