19
Iteration:  1105charge 0 multiplicity 1
 C         0.121377         0.491767         0.218385
 C         1.610081         0.036370         0.173792
 C         2.248424        -0.585630         1.406323
 C         3.573277        -1.197470         1.046253
 C         4.117355        -0.360642        -0.117276
 O         4.031333         1.080613         0.111776
 C         2.764921         1.031616        -0.579397
 C         3.021029        -0.280218        -1.304195
 O         1.745547        -0.835732        -1.040863
 H         0.055255         1.389613         0.758175
 H        -0.230710         0.467118        -0.881153
 H        -0.516184        -0.389378         0.454045
 H         2.391267         0.091344         2.265933
 H         1.732706        -1.380275         1.892421
 H         4.373260        -1.414625         1.870162
 H         3.382952        -2.057027         0.464546
 H         5.125584        -0.632923        -0.406739
 H         2.510520         2.067561        -1.027673
 H         3.284048        -0.454926        -2.322118
