19
Iteration:   226charge 0 multiplicity 1
 C         0.247802         0.667630         0.208588
 C         1.565336        -0.048560         0.062162
 C         2.203811        -0.636614         1.423237
 C         3.657353        -1.155809         1.137112
 C         4.189669        -0.353843        -0.083330
 O         3.934208         1.107326         0.163236
 C         2.685863         0.965125        -0.601992
 C         3.044264        -0.284400        -1.370512
 O         1.743288        -0.947298        -1.097070
 H         0.186528         1.586919         0.962699
 H        -0.124939         1.011991        -0.700066
 H        -0.557819         0.016203         0.444030
 H         2.244511         0.217670         2.101672
 H         1.604109        -1.451723         1.910994
 H         4.322941        -0.999067         2.065566
 H         3.554452        -2.330467         1.086010
 H         5.193502        -0.635589        -0.417246
 H         2.146426         1.831610        -1.096539
 H         3.476478        -0.425498        -2.396519
