19
Iteration:  2724charge 0 multiplicity 1
 C         0.259113         0.569078         0.205474
 C         1.650694        -0.017190         0.160098
 C         2.247018        -0.569761         1.406230
 C         3.637420        -1.253084         0.962212
 C         4.040164        -0.398302        -0.198051
 O         3.927235         1.047491         0.258943
 C         2.621092         1.000146        -0.445893
 C         3.017444        -0.208625        -1.348169
 O         1.806020        -0.894950        -1.121781
 H         0.320340         1.507761         0.796184
 H        -0.202871         0.929670        -0.866664
 H        -0.509937        -0.117240         0.579994
 H         2.566708         0.265774         2.055536
 H         1.555167        -1.025209         2.080307
 H         4.410809        -1.108072         1.650555
 H         3.793682        -2.308004         0.771009
 H         5.030506        -0.583864        -0.578160
 H         2.340024         2.003962        -0.820916
 H         3.300347        -0.251315        -2.436597
