19
Iteration:   916charge 0 multiplicity 1
 C         0.173963         0.410601         0.284113
 C         1.607845         0.160342         0.061454
 C         2.270210        -0.446108         1.393590
 C         3.431065        -1.244135         0.833682
 C         4.033622        -0.404460        -0.196035
 O         3.976263         1.053205         0.207881
 C         2.739117         1.038379        -0.563703
 C         3.062120        -0.200692        -1.271856
 O         1.953535        -0.990646        -0.935835
 H         0.149966         1.330634         1.024979
 H        -0.401660         0.666319        -0.547560
 H        -0.389538        -0.392349         0.677944
 H         2.356540         0.332826         2.126674
 H         1.495763        -1.131965         1.860022
 H         4.284314        -1.370783         1.583636
 H         3.011434        -2.174585         0.340243
 H         5.147351        -0.575180        -0.342365
 H         2.435214         2.071475        -0.916692
 H         3.242645        -0.298536        -2.325668
