19
Iteration:  1809charge 0 multiplicity 1
 C         0.161019         0.455761         0.221185
 C         1.581632         0.114020         0.142569
 C         2.181667        -0.547035         1.390882
 C         3.532932        -1.128925         0.922843
 C         4.164207        -0.408631        -0.231438
 O         3.976417         0.982464         0.170873
 C         2.747734         1.056529        -0.485850
 C         3.061596        -0.216998        -1.321322
 O         1.822647        -0.923122        -0.956002
 H        -0.043825         1.059985         1.083887
 H        -0.155289         0.970190        -0.781504
 H        -0.377140        -0.421968         0.462842
 H         2.279414         0.232053         2.183974
 H         1.429969        -1.354040         1.775751
 H         4.386163        -0.971115         1.612873
 H         3.429049        -2.213400         0.754625
 H         5.150744        -0.778063        -0.510138
 H         2.539968         2.001789        -0.982019
 H         3.423479        -0.145100        -2.374810
