19
Iteration:  4804
 C         0.198862         0.523234         0.244273
 C         1.656556         0.040575         0.171064
 C         2.309835        -0.575866         1.386030
 C         3.687314        -1.163630         1.056022
 C         4.116551        -0.377237        -0.136737
 O         3.880416         0.976418         0.232100
 C         2.722807         1.008022        -0.597920
 C         3.018681        -0.270277        -1.383001
 O         1.709184        -0.846716        -1.089818
 H        -0.048555         1.000284         1.202775
 H         0.082085         1.359720        -0.502709
 H        -0.488168        -0.241663        -0.070157
 H         2.299404         0.357721         1.985054
 H         1.524302        -1.203186         1.842530
 H         4.442013        -0.973324         1.781483
 H         3.667454        -2.187027         0.715712
 H         5.105597        -0.615303        -0.539779
 H         2.185492         1.936714        -0.831092
 H         3.283438        -0.503406        -2.407987
