19
Iteration:  3622
 C         0.142681         0.542605         0.209027
 C         1.675068         0.138148         0.176273
 C         2.160424        -0.756515         1.379180
 C         3.561427        -1.358756         0.880599
 C         4.187783        -0.365771        -0.128843
 O         4.008671         1.151547         0.100012
 C         2.644604         1.030098        -0.495939
 C         3.099782        -0.221172        -1.239328
 O         1.754386        -0.805271        -0.967100
 H         0.055866         1.403894         0.924936
 H        -0.093026         0.758278        -0.922288
 H        -0.471755        -0.361928         0.594369
 H         2.599715         0.064443         2.080088
 H         1.435949        -1.427553         1.810248
 H         4.123979        -1.575177         1.782968
 H         3.353217        -2.205817         0.237376
 H         5.239197        -0.641343        -0.428830
 H         2.407896         1.984166        -0.982044
 H         3.494693        -0.406749        -2.263628
