19
Iteration:  4708charge 0 multiplicity 1
 C         0.236055         0.573262         0.220103
 C         1.575271        -0.012214         0.046629
 C         2.223667        -0.483019         1.420351
 C         3.665776        -1.169119         0.949849
 C         4.181211        -0.349927        -0.269884
 O         3.928895         0.940963         0.326800
 C         2.651664         1.008849        -0.483895
 C         3.032068        -0.236569        -1.400968
 O         1.772312        -0.953293        -0.992190
 H         0.434337         1.521102         0.636397
 H        -0.249840         0.818059        -0.736570
 H        -0.489161         0.003535         0.765021
 H         2.332671         0.351496         2.054583
 H         1.491802        -1.188117         1.898484
 H         4.377330        -1.183444         1.776280
 H         3.277303        -2.200397         0.636807
 H         5.221517        -0.477853        -0.441326
 H         2.268982         2.000714        -0.913055
 H         3.343127        -0.205035        -2.484740
