19
Iteration:  3978
 C         0.275179         0.601039         0.202783
 C         1.638125         0.008713         0.095314
 C         2.181105        -0.663803         1.345544
 C         3.576608        -1.248374         0.933884
 C         4.095982        -0.374703        -0.172505
 O         3.972251         1.112949         0.147113
 C         2.657368         1.060749        -0.426486
 C         2.982144        -0.255148        -1.280907
 O         1.849374        -0.915369        -0.970679
 H         0.325735         1.607644         0.737272
 H        -0.005301         1.112353        -0.804916
 H        -0.440064        -0.115997         0.619022
 H         2.192173         0.100018         2.114850
 H         1.537184        -1.522369         1.784693
 H         4.250496        -1.329827         1.781549
 H         3.374525        -2.268304         0.455294
 H         5.171124        -0.745692        -0.408783
 H         2.220183         2.007983        -0.800287
 H         3.367621        -0.321269        -2.343252
