19
Iteration:  3263charge 0 multiplicity 1
 C         0.253766         0.568776         0.241397
 C         1.604609         0.024405         0.133160
 C         2.216514        -0.658424         1.363478
 C         3.597695        -1.288472         1.016514
 C         4.145172        -0.405771        -0.099339
 O         3.953045         1.097039         0.117221
 C         2.658469         1.054244        -0.509390
 C         3.028327        -0.209479        -1.312531
 O         1.805408        -0.860369        -1.097172
 H         0.282905         1.361229         0.886976
 H        -0.163300         1.075885        -0.598134
 H        -0.477532        -0.038693         0.761880
 H         2.107485         0.058470         2.224845
 H         1.663020        -1.511733         1.638586
 H         4.243766        -1.431047         1.871207
 H         3.455273        -2.309466         0.631384
 H         5.161010        -0.499609        -0.394073
 H         2.171380         2.065006        -0.725249
 H         3.384154        -0.351276        -2.296183
