19
Iteration:  2883charge 0 multiplicity 1
 C         0.143554         0.536908         0.175419
 C         1.604509         0.039984         0.191170
 C         2.198425        -0.659291         1.385443
 C         3.574724        -1.241142         0.935492
 C         4.140952        -0.347764        -0.154493
 O         4.019704         1.076247         0.061045
 C         2.697746         1.071458        -0.412346
 C         3.019596        -0.267079        -1.237579
 O         1.815939        -0.849518        -1.029161
 H         0.195234         1.520095         0.810108
 H        -0.044002         0.750637        -0.936218
 H        -0.605465        -0.273816         0.456402
 H         2.338700         0.108869         2.193626
 H         1.615948        -1.585876         1.804493
 H         4.340392        -1.365730         1.834878
 H         3.396237        -2.254265         0.470636
 H         5.218834        -0.585357        -0.369546
 H         2.304813         2.026794        -0.767581
 H         3.332270        -0.334341        -2.277046
