19
Iteration:  4588charge 0 multiplicity 1
 C         0.141288         0.598373         0.174654
 C         1.590435         0.114917         0.169500
 C         2.289626        -0.635335         1.332290
 C         3.656982        -1.283641         1.007619
 C         4.114142        -0.387736        -0.143848
 O         3.959512         1.097480         0.137563
 C         2.672097         1.011704        -0.570848
 C         3.031248        -0.264705        -1.251670
 O         1.795191        -0.903419        -0.964809
 H        -0.103063         1.008995         1.181089
 H        -0.065704         1.489533        -0.516933
 H        -0.636397        -0.196306        -0.061230
 H         2.537229         0.102138         2.061531
 H         1.619808        -1.366729         1.875283
 H         4.300709        -1.506592         1.844935
 H         3.416048        -2.216378         0.394613
 H         5.130804        -0.501645        -0.475978
 H         2.427685         1.987040        -1.056370
 H         3.364658        -0.518806        -2.292253
