19
Iteration:  3232charge 0 multiplicity 1
 C         0.164849         0.568234         0.128302
 C         1.591734         0.093839         0.196768
 C         2.173878        -0.702958         1.341146
 C         3.559319        -1.232077         0.884060
 C         4.149282        -0.398091        -0.240448
 O         4.030468         1.117069         0.174843
 C         2.746379         1.080375        -0.493356
 C         3.037232        -0.249462        -1.267456
 O         1.799647        -0.888915        -0.872333
 H         0.094657         1.441891         0.900783
 H        -0.254577         0.957508        -0.794482
 H        -0.507427        -0.317438         0.446138
 H         2.082154        -0.203801         2.307603
 H         1.758658        -1.684482         1.322989
 H         4.217799        -1.198024         1.748134
 H         3.537079        -2.239411         0.535604
 H         5.181444        -0.663836        -0.526709
 H         2.318426         2.047280        -0.767902
 H         3.238127        -0.474489        -2.267101
