19
Iteration:  4715
 C         0.203339         0.579083         0.186877
 C         1.636541         0.029704         0.096220
 C         2.260140        -0.485128         1.383595
 C         3.630115        -1.170814         0.931963
 C         4.193423        -0.373472        -0.216547
 O         3.891700         0.936552         0.264758
 C         2.661913         0.983304        -0.512472
 C         3.016452        -0.222499        -1.322743
 O         1.754288        -0.957751        -1.027420
 H         0.245395         1.535386         0.833277
 H        -0.252767         0.934287        -0.755298
 H        -0.452599        -0.074316         0.752033
 H         2.479261         0.363029         2.152774
 H         1.683972        -1.270216         1.845108
 H         4.246243        -1.169070         1.855763
 H         3.517407        -2.221155         0.649967
 H         5.322752        -0.391945        -0.414314
 H         2.301811         2.004345        -0.650729
 H         3.361599        -0.235740        -2.303723
