19
Iteration:  1099
 C         0.118748         0.438185         0.187416
 C         1.634055         0.066779         0.206392
 C         2.238018        -0.572517         1.462451
 C         3.517407        -1.180296         0.964667
 C         4.130046        -0.387289        -0.125895
 O         4.059742         1.105171         0.054055
 C         2.762301         1.042266        -0.529443
 C         3.061838        -0.252234        -1.260177
 O         1.752326        -0.856175        -1.023021
 H         0.011861         1.390364         0.787915
 H        -0.229188         0.486901        -0.826826
 H        -0.495188        -0.458220         0.469931
 H         2.238711         0.286831         2.167384
 H         1.675371        -1.470714         1.882916
 H         4.101837        -1.511351         1.765963
 H         3.257461        -2.191879         0.461550
 H         5.144129        -0.703310        -0.425832
 H         2.505012         1.963140        -0.953315
 H         3.269229        -0.398199        -2.362223
