19
Iteration:  3887charge 0 multiplicity 1
 C         0.203553         0.564070         0.325553
 C         1.609622         0.045366         0.065199
 C         2.139849        -0.645616         1.339972
 C         3.494638        -1.225334         0.945854
 C         4.159678        -0.412791        -0.193392
 O         4.019212         1.092089         0.192337
 C         2.697026         1.073764        -0.580875
 C         3.108904        -0.224624        -1.300077
 O         1.816940        -0.911219        -0.977060
 H         0.174113         1.005661         1.336356
 H        -0.113272         1.324143        -0.343908
 H        -0.459577        -0.341212         0.281834
 H         2.134698         0.073566         2.223607
 H         1.409944        -1.406850         1.586185
 H         4.186885        -1.265018         1.782055
 H         3.424466        -2.273062         0.643938
 H         5.146231        -0.542253        -0.461782
 H         2.408379         2.044437        -1.052982
 H         3.370676        -0.382094        -2.339711
