19
Iteration:  3218
 C         0.144629         0.562985         0.195806
 C         1.601401         0.099367         0.100922
 C         2.173909        -0.653143         1.321069
 C         3.662561        -1.202591         0.955939
 C         4.141504        -0.394640        -0.202865
 O         4.003948         0.991059         0.179407
 C         2.674292         1.066771        -0.427560
 C         2.988039        -0.196292        -1.328236
 O         1.845924        -0.930082        -0.936072
 H        -0.090950         1.306132         0.882810
 H         0.030377         1.101016        -0.781352
 H        -0.602970        -0.189667         0.419946
 H         2.297795        -0.013137         2.258763
 H         1.340862        -1.239082         1.642737
 H         4.405945        -1.227564         1.740020
 H         3.503673        -2.273671         0.712587
 H         5.108653        -0.575538        -0.633998
 H         2.499651         2.152170        -0.806326
 H         3.292668        -0.182679        -2.378000
