19
Iteration:  3653charge 0 multiplicity 1
 C         0.186612         0.451377         0.312018
 C         1.620536         0.114366         0.063115
 C         2.215308        -0.582480         1.382076
 C         3.537448        -1.206982         0.962793
 C         4.124638        -0.456085        -0.245889
 O         3.946560         1.012262         0.266140
 C         2.769739         1.085535        -0.462528
 C         3.051758        -0.194603        -1.383610
 O         1.788005        -0.886876        -1.080325
 H         0.171320         1.130188         1.175822
 H        -0.318904         1.205357        -0.363685
 H        -0.424136        -0.405168         0.496990
 H         2.336455         0.398398         1.913010
 H         1.430846        -1.190367         1.867377
 H         4.237002        -1.270500         1.808005
 H         3.457370        -2.214618         0.540638
 H         5.211510        -0.718739        -0.502234
 H         2.615044         2.092117        -0.744177
 H         3.473117        -0.341118        -2.375232
