19
Iteration:  3282charge 0 multiplicity 1
 C         0.212031         0.594130         0.365986
 C         1.602802        -0.001575         0.042811
 C         2.190998        -0.587865         1.312611
 C         3.573523        -1.183979         0.967526
 C         4.108219        -0.367213        -0.228089
 O         3.921524         1.007468         0.319382
 C         2.703775         0.977565        -0.510740
 C         3.098151        -0.211626        -1.335796
 O         1.806188        -0.929666        -1.111622
 H         0.337146         1.443251         1.097119
 H        -0.219360         1.109278        -0.559822
 H        -0.443718        -0.205024         0.696987
 H         2.416225         0.364201         1.871712
 H         1.440725        -1.173877         1.893331
 H         4.325733        -1.017550         1.756201
 H         3.707969        -2.267654         0.686311
 H         5.149393        -0.689180        -0.348081
 H         2.428540         1.939478        -1.034441
 H         3.352847        -0.161037        -2.428289
