19
Iteration:   167charge 0 multiplicity 1
 C         0.117875         0.472527         0.181410
 C         1.600915         0.152724         0.132020
 C         2.114046        -0.496165         1.375150
 C         3.439281        -1.136177         0.920274
 C         4.131268        -0.398935        -0.158952
 O         4.040807         1.007695         0.072423
 C         2.768701         1.077525        -0.587184
 C         3.027338        -0.244861        -1.258378
 O         1.949993        -0.982901        -0.823805
 H        -0.084571         1.131574         0.873390
 H        -0.231938         0.814070        -0.860890
 H        -0.348346        -0.509052         0.448340
 H         2.187735         0.080963         2.296792
 H         1.584655        -1.391419         1.607539
 H         4.244568        -1.142027         1.673737
 H         3.277156        -2.095114         0.639732
 H         5.205493        -0.683124        -0.416837
 H         2.643484         2.081935        -0.867780
 H         3.297735        -0.573560        -2.292774
