19
Iteration:  3865charge 0 multiplicity 1
 C         0.175483         0.655662         0.210163
 C         1.600069         0.094823         0.124774
 C         2.320748        -0.602309         1.338410
 C         3.671698        -1.237068         0.979423
 C         4.178729        -0.390945        -0.122552
 O         3.877601         0.988772         0.236677
 C         2.688476         0.972767        -0.492375
 C         2.984712        -0.263322        -1.343234
 O         1.740512        -0.899322        -1.083140
 H        -0.074644         1.093835         1.189522
 H         0.071686         1.430697        -0.492010
 H        -0.469369        -0.235627        -0.054188
 H         2.451635         0.191937         2.126523
 H         1.725129        -1.341502         1.820685
 H         4.217829        -1.217900         1.897408
 H         3.781120        -2.248449         0.686966
 H         5.105831        -0.372234        -0.545617
 H         2.454514         2.025595        -0.768706
 H         3.417427        -0.290577        -2.325721
