19
Iteration:  2360charge 0 multiplicity 1
 C         0.217988         0.590574         0.235095
 C         1.583558        -0.101753         0.140763
 C         2.261354        -0.701295         1.388496
 C         3.665474        -1.245988         0.993159
 C         4.130775        -0.343705        -0.200588
 O         3.886333         1.109084         0.178098
 C         2.717081         1.012206        -0.549980
 C         3.077777        -0.228947        -1.287137
 O         1.711879        -0.827310        -1.029883
 H         0.236750         1.419518         1.009587
 H         0.126429         1.088879        -0.673685
 H        -0.692580        -0.004216         0.346319
 H         2.259917         0.155352         2.146109
 H         1.520226        -1.508417         1.766961
 H         4.366195        -1.062538         1.863668
 H         3.818529        -2.374582         0.584468
 H         5.178099        -0.452226        -0.588228
 H         2.374068         1.956161        -0.846518
 H         3.403194        -0.273654        -2.289614
