19
Iteration:   781
 C         0.140939         0.473843         0.270043
 C         1.620077         0.127701         0.056201
 C         2.290705        -0.436976         1.387069
 C         3.528974        -1.245917         0.956443
 C         4.100373        -0.428791        -0.198134
 O         3.891634         1.018606         0.276769
 C         2.775962         1.029197        -0.505122
 C         3.046084        -0.227366        -1.337229
 O         1.848425        -0.939506        -1.059957
 H         0.120474         1.370483         0.853646
 H        -0.358257         0.540942        -0.685272
 H        -0.348192        -0.321934         0.863916
 H         2.726075         0.279461         2.075755
 H         1.588154        -0.993147         2.005433
 H         4.291619        -1.123853         1.658485
 H         3.287878        -2.198125         0.489847
 H         5.098579        -0.758734        -0.583682
 H         2.350277         1.914420        -0.944181
 H         3.380661        -0.249232        -2.424910
