19
Iteration:  3981
 C         0.280339         0.611185         0.215826
 C         1.599975        -0.007903         0.104630
 C         2.165919        -0.690514         1.349218
 C         3.566008        -1.221747         0.912573
 C         4.104782        -0.367734        -0.146564
 O         3.995361         1.124073         0.136234
 C         2.662417         1.069536        -0.448889
 C         3.014745        -0.259047        -1.269274
 O         1.838840        -0.911946        -0.977770
 H         0.314245         1.528541         0.751400
 H         0.012113         1.055044        -0.738467
 H        -0.429151        -0.143864         0.559254
 H         2.180492         0.060503         2.103705
 H         1.572151        -1.458275         1.788234
 H         4.217385        -1.430207         1.771192
 H         3.409775        -2.188860         0.482047
 H         5.096899        -0.733520        -0.498532
 H         2.253671         2.005701        -0.757287
 H         3.313356        -0.464639        -2.277900
