19
Iteration:   972charge 0 multiplicity 1
 C         0.168387         0.603117         0.239141
 C         1.582492         0.035553         0.122247
 C         2.163644        -0.756944         1.342346
 C         3.673268        -1.139295         1.087072
 C         4.101431        -0.340829        -0.207076
 O         4.026358         1.059640         0.126899
 C         2.710953         1.022232        -0.564878
 C         3.019022        -0.224303        -1.297430
 O         1.783515        -0.919636        -1.005240
 H         0.217618         1.588975         0.820468
 H        -0.185501         0.927770        -0.782510
 H        -0.460497        -0.055388         0.839677
 H         1.943874        -0.188921         2.298919
 H         1.606444        -1.725056         1.332035
 H         4.385385        -0.817668         1.982038
 H         3.741278        -2.255748         0.975526
 H         5.156763        -0.510557        -0.566737
 H         2.333156         2.073011        -0.847959
 H         3.290537        -0.444712        -2.330102
