19
Iteration:  3885
 C         0.206469         0.570216         0.317717
 C         1.607529         0.055754         0.079127
 C         2.143099        -0.650823         1.315584
 C         3.523564        -1.233768         0.953875
 C         4.160373        -0.405112        -0.185108
 O         4.012491         1.082913         0.201615
 C         2.699630         1.071293        -0.576949
 C         3.091116        -0.222894        -1.301774
 O         1.813002        -0.921064        -0.982371
 H         0.146605         0.984199         1.311526
 H        -0.111745         1.342389        -0.335988
 H        -0.476965        -0.315010         0.268093
 H         2.210958         0.137207         2.181735
 H         1.361262        -1.349959         1.550392
 H         4.266916        -1.166998         1.831951
 H         3.366570        -2.270570         0.582677
 H         5.195529        -0.577041        -0.397011
 H         2.381671         2.001789        -1.056835
 H         3.290368        -0.363885        -2.346772
