19
Iteration:  2135
 C         0.147125         0.511389         0.138392
 C         1.635961         0.009732         0.235037
 C         2.286416        -0.549715         1.400356
 C         3.624587        -1.298685         0.912653
 C         4.132255        -0.326912        -0.192187
 O         3.937514         1.117520         0.150872
 C         2.734293         1.003833        -0.474605
 C         2.983474        -0.249422        -1.315157
 O         1.779995        -0.871989        -0.945823
 H        -0.187705         1.112873         0.907956
 H        -0.010922         1.085482        -0.814636
 H        -0.380968        -0.379852         0.160502
 H         2.576704         0.200985         2.115611
 H         1.610916        -1.183540         1.933823
 H         4.328304        -1.514416         1.748531
 H         3.395330        -2.261500         0.438763
 H         5.174661        -0.588212        -0.426654
 H         2.437375         1.996057        -1.001808
 H         3.062995        -0.367814        -2.462627
