19
Iteration:   263charge 0 multiplicity 1
 C         0.112892         0.576064         0.143972
 C         1.649828         0.102592         0.158496
 C         2.056636        -0.677213         1.342525
 C         3.559919        -1.094072         1.029051
 C         4.174776        -0.382634        -0.222125
 O         4.106270         1.090696         0.096686
 C         2.759627         1.072790        -0.584643
 C         3.025130        -0.295182        -1.305836
 O         1.816100        -0.975077        -0.821813
 H        -0.171000         1.229572         0.972405
 H        -0.204707         0.927233        -0.899023
 H        -0.275015        -0.451945         0.394856
 H         1.784130        -0.212695         2.334512
 H         1.503967        -1.600831         1.280724
 H         4.152951        -0.883131         1.894666
 H         3.579863        -2.178678         0.807215
 H         5.204963        -0.572302        -0.422657
 H         2.415112         2.065966        -0.860810
 H         3.211011        -0.569533        -2.306183
