19
Iteration:   864
 C         0.219505         0.585157         0.238984
 C         1.595165         0.046021         0.112805
 C         2.235517        -0.701285         1.359961
 C         3.724110        -1.067433         1.125775
 C         4.154080        -0.430084        -0.217207
 O         3.969724         1.013942         0.201128
 C         2.677614         1.002666        -0.511671
 C         3.010673        -0.251746        -1.332717
 O         1.671109        -0.889436        -1.111715
 H        -0.135576         0.955898         1.157516
 H         0.121558         1.494264        -0.480139
 H        -0.499036        -0.166791        -0.189547
 H         2.220300         0.131591         2.150778
 H         1.575324        -1.533892         1.655139
 H         4.495886        -0.740948         1.917636
 H         3.994464        -2.137742         1.257162
 H         5.118898        -0.673054        -0.651437
 H         2.188205         2.003200        -0.846106
 H         3.279243        -0.301341        -2.387310
