19
Iteration:    55charge 0 multiplicity 1
 C         0.238520         0.530679         0.149509
 C         1.639786         0.099508         0.157134
 C         2.201930        -0.638840         1.435619
 C         3.510417        -1.237459         1.070049
 C         4.191840        -0.423627        -0.077592
 O         4.008104         1.188097         0.055932
 C         2.736206         0.973156        -0.578418
 C         3.059561        -0.311802        -1.296511
 O         1.719272        -0.876840        -1.013021
 H         0.075446         1.542286         0.515332
 H        -0.075561         0.593442        -0.860239
 H        -0.438824        -0.104983         0.667121
 H         2.384180         0.306382         2.017579
 H         1.376295        -1.231426         1.904402
 H         4.086472        -1.376264         1.894405
 H         3.306005        -2.271250         0.731996
 H         5.234194        -0.605780        -0.282675
 H         2.164740         1.916937        -0.961849
 H         3.330196        -0.418431        -2.303527
