19
Iteration:  2572charge 0 multiplicity 1
 C         0.137524         0.476665         0.405703
 C         1.594166         0.049972         0.041571
 C         2.127658        -0.657420         1.392782
 C         3.457950        -1.310498         0.969689
 C         4.187346        -0.326037        -0.160220
 O         4.007876         1.145903         0.137473
 C         2.716711         1.089104        -0.622289
 C         3.101571        -0.183345        -1.335199
 O         1.879598        -0.929841        -0.994943
 H         0.237806         1.269559         1.052153
 H        -0.435225         0.842684        -0.486563
 H        -0.408165        -0.252037         0.903696
 H         2.444432         0.165562         2.175956
 H         1.593903        -1.480664         1.800265
 H         4.131810        -1.629441         1.801028
 H         3.379233        -2.221902         0.210123
 H         5.172898        -0.577636        -0.297608
 H         2.351553         2.105050        -1.009823
 H         3.476202        -0.108789        -2.409021
