19
Iteration:  4229
 C         0.221718         0.577135         0.181013
 C         1.673085         0.007512         0.148100
 C         2.319030        -0.542467         1.403829
 C         3.583659        -1.282320         1.059455
 C         4.055965        -0.390253        -0.100446
 O         3.919539         1.039035         0.168701
 C         2.707368         1.053678        -0.476124
 C         2.967439        -0.198461        -1.377762
 O         1.755330        -0.923087        -1.122082
 H        -0.141463         0.888600         1.116239
 H         0.105735         1.334433        -0.607714
 H        -0.347834        -0.309296         0.044321
 H         2.740334         0.293153         1.897936
 H         1.669086        -1.100586         2.164688
 H         4.299784        -1.070217         1.813111
 H         3.605269        -2.383283         0.695478
 H         5.058401        -0.550443        -0.461527
 H         2.394868         2.027868        -0.821315
 H         3.488179        -0.458056        -2.318636
