19
Iteration:  2436charge 0 multiplicity 1
 C         0.169591         0.462521         0.336787
 C         1.570010        -0.007105         0.129203
 C         2.281241        -0.563140         1.372670
 C         3.639723        -1.222581         1.018670
 C         4.185752        -0.406343        -0.110493
 O         3.972252         1.058225         0.284637
 C         2.736594         1.021532        -0.548910
 C         3.037010        -0.204892        -1.412807
 O         1.662177        -0.834707        -1.211150
 H        -0.151774         1.294912         1.024280
 H        -0.094958         0.842622        -0.568507
 H        -0.347203        -0.489378         0.454097
 H         2.475133         0.458608         1.779277
 H         1.689846        -1.169807         2.190778
 H         4.299690        -1.188049         1.909652
 H         3.543181        -2.229004         0.523557
 H         5.261265        -0.280160        -0.407911
 H         2.391160         1.959851        -0.829047
 H         3.355742        -0.509069        -2.349180
