19
Iteration:   907
 C         0.153466         0.422008         0.306689
 C         1.629776         0.126704         0.152056
 C         2.171738        -0.444992         1.340865
 C         3.400677        -1.288807         0.864028
 C         4.153936        -0.319304        -0.168744
 O         4.016193         1.082894         0.168910
 C         2.718356         1.067223        -0.548541
 C         3.088836        -0.262366        -1.357367
 O         1.907236        -0.960537        -0.918611
 H         0.049723         1.058681         1.132523
 H        -0.348631         0.860499        -0.560432
 H        -0.271987        -0.508870         0.644714
 H         2.411873         0.281427         2.156683
 H         1.463596        -1.219532         1.671169
 H         4.079702        -1.577867         1.727014
 H         3.156224        -2.243138         0.529296
 H         5.140274        -0.650892        -0.483221
 H         2.383313         1.965476        -1.159199
 H         3.382801        -0.296687        -2.401033
