19
Iteration:  2522charge 0 multiplicity 1
 C         0.179177         0.588565         0.130243
 C         1.611243         0.025402         0.197584
 C         2.300916        -0.692810         1.413853
 C         3.754411        -1.291390         1.064429
 C         4.101338        -0.342060        -0.183611
 O         3.935426         1.078277         0.173472
 C         2.709755         1.018092        -0.451709
 C         2.920741        -0.208561        -1.368310
 O         1.708723        -0.849395        -1.110053
 H         0.004305         1.344847         1.014365
 H        -0.036122         0.986336        -0.846506
 H        -0.605108        -0.266822         0.366403
 H         2.475600        -0.010404         2.173355
 H         1.701106        -1.580469         1.768982
 H         4.370084        -1.037247         1.927906
 H         3.938169        -2.264053         0.818620
 H         5.254612        -0.466425        -0.331648
 H         2.303323         1.920428        -0.867647
 H         3.366374        -0.226324        -2.343882
