19
Iteration:  1758charge 0 multiplicity 1
 C         0.213830         0.611681         0.228037
 C         1.629361         0.078958         0.155529
 C         2.216009        -0.680569         1.373002
 C         3.606499        -1.196782         0.966961
 C         4.154884        -0.303446        -0.141277
 O         3.945849         1.129333         0.201738
 C         2.695485         0.983939        -0.590552
 C         3.043025        -0.374185        -1.339590
 O         1.761718        -0.900903        -0.976427
 H        -0.018467         1.102830         1.169750
 H         0.061083         1.352997        -0.603376
 H        -0.580383        -0.159320         0.077964
 H         2.162218        -0.009964         2.198280
 H         1.567583        -1.508298         1.598024
 H         4.358092        -1.141821         1.826114
 H         3.560113        -2.318624         0.791349
 H         5.212773        -0.469426        -0.567334
 H         2.173931         1.847950        -1.265917
 H         3.489049        -0.555716        -2.322887
