19
Iteration:    58charge 0 multiplicity 1
 C         0.245388         0.545360         0.174348
 C         1.644867         0.118791         0.153823
 C         2.177472        -0.674653         1.458331
 C         3.482760        -1.257335         1.056122
 C         4.211138        -0.429808        -0.063557
 O         3.986980         1.212821         0.019118
 C         2.733151         0.993620        -0.609291
 C         3.087921        -0.306777        -1.255839
 O         1.728805        -0.884299        -1.020231
 H         0.142824         1.476154         0.585167
 H        -0.159739         0.687889        -0.920148
 H        -0.475823        -0.150642         0.728050
 H         2.371042         0.195696         2.027145
 H         1.417947        -1.208280         1.901246
 H         4.122352        -1.440979         2.001489
 H         3.270163        -2.209302         0.706363
 H         5.304511        -0.585379        -0.294192
 H         2.247977         1.775958        -1.023261
 H         3.333006        -0.435435        -2.335719
