19
Iteration:   529
 C         0.286510         0.649361         0.282405
 C         1.638996         0.027641         0.128914
 C         2.021569        -0.806939         1.349407
 C         3.521108        -1.088929         1.086555
 C         4.182575        -0.359519        -0.105112
 O         4.043146         1.187664        -0.017766
 C         2.663825         0.989050        -0.558147
 C         3.037703        -0.285243        -1.318747
 O         1.841104        -0.985853        -1.000885
 H         0.374378         1.094689         1.262138
 H        -0.021260         1.343557        -0.567910
 H        -0.533423        -0.047634         0.541398
 H         1.897080        -0.051784         2.119340
 H         1.376740        -1.673296         1.629920
 H         3.997631        -0.816313         2.094966
 H         3.764484        -2.168590         0.886638
 H         5.241107        -0.716670        -0.351425
 H         2.124751         1.894735        -0.959621
 H         3.424287        -0.364971        -2.421055
