19
Iteration:  2324
 C         0.178948         0.449520         0.382991
 C         1.603991         0.071717         0.061466
 C         2.184814        -0.503869         1.302333
 C         3.569000        -1.203395         0.979908
 C         4.118385        -0.420907        -0.213078
 O         3.958438         1.011269         0.155451
 C         2.707899         1.072380        -0.511756
 C         3.145345        -0.185077        -1.297087
 O         1.813396        -0.917109        -1.027449
 H         0.157995         1.027397         1.267522
 H        -0.242598         1.083915        -0.414288
 H        -0.474064        -0.444807         0.604983
 H         2.215641         0.143088         2.151331
 H         1.455632        -1.373722         1.586604
 H         4.298821        -1.246821         1.802232
 H         3.283405        -2.267508         0.717320
 H         5.209555        -0.409752        -0.472112
 H         2.344799         2.004227        -1.014724
 H         3.320934        -0.159846        -2.409857
