19
Iteration:  3448
 C         0.173914         0.569238         0.271608
 C         1.594135         0.037522         0.154213
 C         2.157713        -0.630768         1.315351
 C         3.576942        -1.210670         0.926287
 C         4.136318        -0.393318        -0.231990
 O         3.955423         1.057968         0.181666
 C         2.727242         1.027015        -0.508939
 C         3.097325        -0.186244        -1.308529
 O         1.823641        -0.914509        -0.942330
 H         0.099624         1.417187         0.870864
 H        -0.012279         0.863793        -0.773638
 H        -0.403438        -0.324450         0.595560
 H         2.093167         0.065006         2.202877
 H         1.474046        -1.406725         1.528845
 H         4.391494        -1.219914         1.642831
 H         3.522987        -2.257331         0.605610
 H         5.152079        -0.523878        -0.340167
 H         2.404914         2.040394        -0.889219
 H         3.266517        -0.275009        -2.357774
