19
Iteration:  3022
 C         0.200011         0.472723         0.227312
 C         1.589770         0.063511         0.112301
 C         2.234499        -0.562579         1.368809
 C         3.633224        -1.241540         0.988243
 C         4.142269        -0.451047        -0.202360
 O         3.969210         1.037645         0.186861
 C         2.693687         0.997269        -0.484199
 C         3.038819        -0.191746        -1.235574
 O         1.754329        -0.826112        -1.063952
 H         0.238959         1.231962         0.955296
 H        -0.293762         1.109196        -0.587579
 H        -0.630054        -0.284012         0.205527
 H         2.476948         0.340502         2.019980
 H         1.573831        -1.249802         1.802524
 H         4.249765        -1.093599         1.836936
 H         3.584074        -2.285033         0.670566
 H         5.118832        -0.737988        -0.598069
 H         2.315690         1.989534        -0.958955
 H         3.417680        -0.218647        -2.277566
