19
Iteration:  4179charge 0 multiplicity 1
 C         0.171306         0.527187         0.245387
 C         1.619070         0.171311         0.136173
 C         2.124035        -0.652420         1.297952
 C         3.564581        -1.281076         0.978135
 C         4.139873        -0.391819        -0.182516
 O         4.016203         1.108075         0.190938
 C         2.737890         1.094276        -0.626343
 C         2.973496        -0.301529        -1.310202
 O         1.844905        -0.913768        -0.930680
 H         0.173396         1.179236         1.190063
 H        -0.175026         0.983672        -0.703549
 H        -0.546322        -0.325640         0.614954
 H         2.338626        -0.017621         2.237057
 H         1.442342        -1.431884         1.538613
 H         4.390137        -1.034343         1.748789
 H         3.610320        -2.314559         0.776897
 H         5.189828        -0.602313        -0.542417
 H         2.346070         2.138727        -0.847790
 H         3.506302        -0.445118        -2.312585
