19
Iteration:  3682charge 0 multiplicity 1
 C         0.145977         0.494738         0.290780
 C         1.596089         0.079835         0.117133
 C         2.267667        -0.564450         1.375403
 C         3.589153        -1.207532         0.998804
 C         4.134782        -0.462295        -0.204361
 O         3.957932         0.982623         0.208707
 C         2.733561         1.045992        -0.498762
 C         3.047115        -0.155403        -1.352981
 O         1.778248        -0.863159        -1.091050
 H         0.008854         0.994364         1.273092
 H        -0.033268         1.271014        -0.395049
 H        -0.658728        -0.206536         0.191552
 H         2.195312         0.142325         2.134756
 H         1.518696        -1.340196         1.705189
 H         4.338952        -1.227091         1.808763
 H         3.539934        -2.307698         0.728556
 H         5.157306        -0.722736        -0.446862
 H         2.540902         2.053048        -0.922921
 H         3.457059        -0.112358        -2.346938
