19
Iteration:  3519charge 0 multiplicity 1
 C         0.132214         0.483483         0.319537
 C         1.642273         0.092020         0.107239
 C         2.133304        -0.572394         1.361411
 C         3.527701        -1.254437         0.917187
 C         4.093676        -0.384874        -0.178800
 O         4.006615         1.071759         0.161522
 C         2.750086         1.084951        -0.603933
 C         3.055949        -0.154572        -1.321462
 O         1.878121        -0.961742        -0.936483
 H         0.094027         1.026807         1.354833
 H        -0.168110         1.296746        -0.370965
 H        -0.443819        -0.425291         0.248852
 H         2.161392         0.038921         2.258274
 H         1.436467        -1.474121         1.578980
 H         4.156030        -1.507889         1.819425
 H         3.423159        -2.232763         0.348479
 H         5.173869        -0.760288        -0.458751
 H         2.517042         2.172210        -0.928481
 H         3.491563        -0.194426        -2.337438
