19
Iteration:  2606
 C         0.209833         0.533465         0.185012
 C         1.630895         0.095750         0.141308
 C         2.282262        -0.667918         1.362080
 C         3.636802        -1.254146         0.977242
 C         4.157419        -0.340838        -0.195469
 O         3.946594         1.073035         0.205077
 C         2.683610         1.053155        -0.487970
 C         3.013184        -0.219438        -1.336768
 O         1.715500        -0.910850        -0.991275
 H         0.002134         1.215277         0.936208
 H        -0.072228         1.001752        -0.744354
 H        -0.346782        -0.389472         0.280680
 H         2.502087         0.066331         2.235430
 H         1.547499        -1.334153         1.787233
 H         4.170248        -1.406752         1.948451
 H         3.516672        -2.304661         0.481723
 H         5.166560        -0.519598        -0.438367
 H         2.253111         2.019413        -0.895575
 H         3.314162        -0.114427        -2.427215
