19
Iteration:  3465
 C         0.160229         0.541769         0.100316
 C         1.614811         0.123748         0.153671
 C         2.324662        -0.668554         1.427506
 C         3.662312        -1.271738         1.004117
 C         4.115303        -0.352919        -0.217502
 O         3.952803         1.028309         0.247461
 C         2.666633         1.036746        -0.503253
 C         2.960022        -0.268136        -1.317415
 O         1.768384        -0.838422        -1.045221
 H         0.052300         1.439492         0.857268
 H        -0.208517         1.104296        -0.782412
 H        -0.498418        -0.273874         0.367149
 H         2.636477         0.057587         2.138682
 H         1.697870        -1.502378         1.907804
 H         4.255529        -1.094563         1.922962
 H         3.602883        -2.328533         0.694092
 H         5.199545        -0.609407        -0.644946
 H         2.348266         2.054004        -0.764254
 H         3.340694        -0.348239        -2.372515
