19
Iteration:  2432
 C         0.172975         0.466728         0.356594
 C         1.569696         0.032863         0.125157
 C         2.261061        -0.563005         1.372996
 C         3.639671        -1.218034         0.994344
 C         4.175417        -0.403504        -0.090632
 O         3.963812         1.038555         0.242230
 C         2.749597         1.010264        -0.513687
 C         3.027285        -0.165761        -1.396061
 O         1.689272        -0.870382        -1.198550
 H        -0.137746         1.275613         0.998623
 H        -0.044168         0.789175        -0.772194
 H        -0.429130        -0.536433         0.486516
 H         2.499618         0.345796         1.846513
 H         1.715799        -1.202993         2.002114
 H         4.283051        -1.168913         1.849805
 H         3.488880        -2.221679         0.759794
 H         5.204397        -0.307156        -0.488178
 H         2.426691         2.085562        -0.777380
 H         3.407204        -0.437979        -2.463264
