19
Iteration:  2737
 C         0.221039         0.566636         0.146227
 C         1.594390         0.036170         0.213652
 C         2.289815        -0.648975         1.451292
 C         3.665121        -1.240232         1.016251
 C         4.191573        -0.414217        -0.202223
 O         3.908628         1.037594         0.180109
 C         2.693207         0.999493        -0.471896
 C         2.960221        -0.139615        -1.337867
 O         1.736687        -0.890231        -1.089876
 H         0.121092         1.495958         0.640880
 H         0.203838         0.714428        -0.965599
 H        -0.628172        -0.071211         0.498166
 H         2.513829         0.320986         2.055101
 H         1.692792        -1.401125         1.886214
 H         4.316126        -1.235652         1.860160
 H         3.317228        -2.208820         0.623371
 H         5.173125        -0.614906        -0.438811
 H         2.192464         1.969827        -0.697912
 H         3.401250        -0.014693        -2.361666
