19
Iteration:  4694
 C         0.202333         0.603661         0.246527
 C         1.626291        -0.001717         0.148822
 C         2.208807        -0.583713         1.365956
 C         3.527936        -1.230037         0.956651
 C         4.057185        -0.415495        -0.231069
 O         3.931710         1.110234         0.248432
 C         2.716179         0.979735        -0.520661
 C         3.034872        -0.201354        -1.344970
 O         1.898996        -0.951250        -1.019790
 H         0.244657         1.648189         0.596165
 H        -0.225161         0.565556        -0.753724
 H        -0.375543         0.097905         0.952342
 H         2.385417         0.324896         2.040766
 H         1.617440        -1.296626         1.913568
 H         4.386471        -1.168738         1.671693
 H         3.483317        -2.303002         0.713442
 H         5.032665        -0.695938        -0.658035
 H         2.491063         2.005473        -0.883508
 H         3.201348        -0.309916        -2.375928
