19
Iteration:  2617
 C         0.153124         0.562024         0.147943
 C         1.616162         0.017554         0.147021
 C         2.280523        -0.613385         1.329449
 C         3.681890        -1.244043         0.993255
 C         4.136128        -0.352875        -0.248879
 O         3.936070         0.985750         0.272255
 C         2.686676         1.025333        -0.492626
 C         2.964245        -0.143952        -1.327214
 O         1.791648        -0.897323        -0.965362
 H         0.017825         1.123175         1.001842
 H        -0.048646         1.112503        -0.752598
 H        -0.622321        -0.189929         0.222254
 H         2.402500         0.268046         2.100479
 H         1.637297        -1.402134         1.703269
 H         4.498701        -1.037000         1.770915
 H         3.544270        -2.391388         0.835281
 H         5.044378        -0.443317        -0.759459
 H         2.531961         2.085315        -0.853397
 H         3.140909        -0.324063        -2.432291
