19
Iteration:   782
 C         0.146256         0.474230         0.268559
 C         1.613297         0.123528         0.060137
 C         2.292867        -0.440432         1.391981
 C         3.526932        -1.246216         0.949535
 C         4.102648        -0.426687        -0.191784
 O         3.891724         1.022627         0.270572
 C         2.774892         1.026225        -0.512435
 C         3.054606        -0.227365        -1.332726
 O         1.838323        -0.936197        -1.060814
 H         0.099617         1.379945         0.876842
 H        -0.324217         0.541020        -0.648282
 H        -0.328593        -0.306071         0.837336
 H         2.703807         0.278118         2.067177
 H         1.562847        -1.011127         2.000901
 H         4.303743        -1.166036         1.671396
 H         3.300567        -2.175264         0.491508
 H         5.128845        -0.730653        -0.566947
 H         2.351149         1.895817        -0.950252
 H         3.398514        -0.261627        -2.406274
