19
Iteration:  4263
 C         0.083674         0.538756         0.303820
 C         1.552165         0.124416         0.166276
 C         2.163854        -0.588202         1.382904
 C         3.495254        -1.172291         0.901014
 C         4.168914        -0.375337        -0.201325
 O         3.987657         1.015477         0.159207
 C         2.807448         1.010041        -0.549984
 C         3.098004        -0.284009        -1.346407
 O         1.869026        -0.866846        -0.992546
 H        -0.037525         1.163164         1.136562
 H        -0.424445         0.946293        -0.580226
 H        -0.443878        -0.426710         0.394058
 H         2.290437         0.063076         2.227419
 H         1.480051        -1.423484         1.738838
 H         4.180782        -1.073975         1.764829
 H         3.475829        -2.280359         0.706843
 H         5.226392        -0.597439        -0.405368
 H         2.523643         1.957457        -0.958194
 H         3.609148        -0.514835        -2.241730
