19
Iteration:  3119
 C         0.243510         0.534645         0.135122
 C         1.636224         0.027430         0.206976
 C         2.210059        -0.684084         1.385036
 C         3.632642        -1.247332         1.007464
 C         4.082960        -0.418555        -0.186444
 O         3.990564         1.131212         0.117905
 C         2.723504         0.985146        -0.408822
 C         3.002857        -0.210014        -1.349838
 O         1.727169        -0.847368        -1.020603
 H         0.068846         1.362550         0.829218
 H         0.014559         1.158348        -0.851017
 H        -0.605309        -0.238489         0.329343
 H         2.557017         0.112017         2.171705
 H         1.468586        -1.391090         1.824985
 H         4.347978        -0.964512         1.792454
 H         3.703295        -2.352297         0.717160
 H         5.107334        -0.772952        -0.397975
 H         2.117863         1.967107        -0.706923
 H         3.370185        -0.042459        -2.412106
