19
Iteration:  1968charge 0 multiplicity 1
 C         0.153947         0.475726         0.278749
 C         1.603418         0.107352         0.111890
 C         2.269258        -0.451910         1.309937
 C         3.603467        -1.224917         0.998047
 C         4.121141        -0.381524        -0.225572
 O         3.895933         0.950122         0.264762
 C         2.725577         1.058444        -0.530659
 C         3.083844        -0.253228        -1.392348
 O         1.804389        -0.913619        -1.023212
 H         0.136558         1.069113         1.242530
 H        -0.176641         1.079168        -0.458854
 H        -0.481193        -0.448482         0.372782
 H         2.469667         0.216675         2.150155
 H         1.508987        -1.099114         1.608304
 H         4.384348        -1.075207         1.742995
 H         3.449123        -2.300584         0.949209
 H         5.180434        -0.616019        -0.343852
 H         2.304885         2.080489        -0.970568
 H         3.306222        -0.225407        -2.432253
