19
Iteration:  1175charge 0 multiplicity 1
 C         0.233217         0.641930         0.256253
 C         1.667559         0.039271         0.159272
 C         2.175501        -0.795876         1.321352
 C         3.589988        -1.217946         1.023720
 C         4.120331        -0.376074        -0.061086
 O         3.973266         1.233269        -0.030967
 C         2.644481         0.950766        -0.571691
 C         3.078158        -0.259885        -1.204198
 O         1.788219        -0.881452        -0.979480
 H         0.360231         1.440951         1.082109
 H         0.054141         1.122473        -0.710523
 H        -0.580939        -0.150880         0.411269
 H         1.945974        -0.096662         2.251038
 H         1.441832        -1.677123         1.576956
 H         4.117897        -1.204945         1.981889
 H         3.535536        -2.301899         0.534170
 H         5.143562        -0.626671        -0.369162
 H         2.203565         1.735888        -1.084290
 H         3.502441        -0.421697        -2.264558
