19
Iteration:   243
 C         0.220939         0.609579         0.197712
 C         1.642866         0.125504         0.132474
 C         2.115647        -0.668331         1.308807
 C         3.582153        -1.081075         1.061522
 C         4.079909        -0.416184        -0.186274
 O         3.921527         1.045140         0.112470
 C         2.696101         0.998377        -0.572283
 C         3.066661        -0.297262        -1.277884
 O         1.883833        -0.971617        -0.916053
 H         0.281661         1.359221         0.880362
 H        -0.060030         1.113964        -0.826002
 H        -0.557303        -0.157300         0.535061
 H         2.075574        -0.156345         2.292414
 H         1.441995        -1.515433         1.296653
 H         4.271953        -0.733725         1.807656
 H         3.806464        -2.073396         0.981081
 H         5.166215        -0.603439        -0.440333
 H         2.522877         1.968862        -0.964262
 H         3.329094        -0.402371        -2.344586
