19
Iteration:  4401charge 0 multiplicity 1
 C         0.114575         0.384880         0.248031
 C         1.602519         0.136266         0.112629
 C         2.168015        -0.514667         1.365856
 C         3.546009        -1.186680         0.945589
 C         4.136812        -0.424143        -0.197851
 O         4.067960         1.028310         0.166752
 C         2.838243         1.054930        -0.525058
 C         3.015978        -0.221667        -1.293613
 O         1.767568        -0.891736        -0.977371
 H        -0.063659         0.911423         1.199662
 H        -0.261939         1.032237        -0.576244
 H        -0.394172        -0.539066         0.097637
 H         2.359406         0.256144         2.068574
 H         1.408308        -1.118264         1.856361
 H         4.125840        -1.183828         1.814175
 H         3.412311        -2.204628         0.599597
 H         5.125532        -0.737005        -0.351609
 H         2.610694         2.047372        -0.944417
 H         3.264316        -0.168417        -2.332818
