19
Iteration:  4971charge 0 multiplicity 1
 C         0.115414         0.567135         0.178572
 C         1.592280         0.073914         0.127950
 C         2.236146        -0.611374         1.365887
 C         3.669272        -1.287374         0.918181
 C         4.170204        -0.351625        -0.125450
 O         3.976184         1.106119         0.102603
 C         2.685827         1.024698        -0.475988
 C         3.024909        -0.282928        -1.257286
 O         1.749816        -0.882933        -0.964126
 H        -0.110483         0.759068         1.223907
 H         0.001367         1.495841        -0.327625
 H        -0.414434        -0.331297        -0.159848
 H         2.498369         0.133132         2.128965
 H         1.632441        -1.406186         1.958082
 H         4.343272        -1.293262         1.722994
 H         3.459916        -2.245547         0.480327
 H         5.227612        -0.561548        -0.352713
 H         2.420277         2.016331        -1.017844
 H         3.410086        -0.495790        -2.326295
