19
Iteration:  3524
 C         0.137411         0.476048         0.346489
 C         1.613797         0.139046         0.144732
 C         2.156707        -0.604511         1.305768
 C         3.514864        -1.260606         0.955657
 C         4.121289        -0.414344        -0.178778
 O         4.012293         1.122988         0.174386
 C         2.748220         1.051634        -0.643946
 C         3.089008        -0.196641        -1.341897
 O         1.872584        -0.905553        -0.934614
 H         0.167055         0.825012         1.347977
 H        -0.112610         1.143104        -0.508632
 H        -0.603260        -0.369044         0.334626
 H         2.101893        -0.015851         2.246825
 H         1.470207        -1.384232         1.476519
 H         4.014742        -1.572632         1.849728
 H         3.395226        -2.160142         0.386421
 H         5.063144        -0.712295        -0.526016
 H         2.337909         2.015302        -0.810645
 H         3.455824        -0.300480        -2.360740
