19
Iteration:   317
 C         0.193671         0.491693         0.235173
 C         1.643526         0.063538         0.095212
 C         2.237485        -0.374096         1.339978
 C         3.492246        -1.189935         0.980144
 C         4.127949        -0.424287        -0.168532
 O         3.876075         0.990310         0.311229
 C         2.752763         1.010415        -0.624498
 C         3.036736        -0.243716        -1.374514
 O         1.863729        -0.970013        -1.008080
 H         0.322842         1.064060         1.172592
 H        -0.284063         1.102082        -0.602437
 H        -0.449171        -0.402189         0.459469
 H         2.554259         0.565550         1.870633
 H         1.708625        -1.027173         2.002938
 H         4.025983        -1.147223         1.924981
 H         3.401981        -2.329220         0.771884
 H         5.147973        -0.427794        -0.407371
 H         2.532064         1.920753        -1.178802
 H         3.404126        -0.424681        -2.331875
