19
Iteration:  3711
 C         0.234930         0.537437         0.201006
 C         1.639112         0.075265         0.205289
 C         2.211956        -0.704403         1.321209
 C         3.530983        -1.319330         0.889329
 C         4.152193        -0.314932        -0.100073
 O         4.021003         1.133543         0.089115
 C         2.728936         1.020255        -0.503373
 C         3.033542        -0.221404        -1.255118
 O         1.711384        -0.842396        -0.931121
 H        -0.032752         1.082836         1.135293
 H         0.221570         1.145551        -0.758771
 H        -0.663930        -0.187598         0.020505
 H         2.126886        -0.186306         2.347802
 H         1.443374        -1.426234         1.518910
 H         4.208408        -1.393727         1.733431
 H         3.631736        -2.270854         0.374445
 H         5.166459        -0.626079        -0.332048
 H         2.329544         1.925281        -1.052781
 H         3.487704        -0.361180        -2.281261
