19
Iteration:  4799
 C         0.178705         0.507008         0.248884
 C         1.616777         0.045780         0.133383
 C         2.301805        -0.597278         1.403580
 C         3.667043        -1.134848         1.065647
 C         4.119519        -0.416752        -0.162315
 O         3.880233         0.972241         0.202661
 C         2.756689         1.038686        -0.567740
 C         2.993711        -0.264590        -1.372109
 O         1.741504        -0.848061        -1.074195
 H         0.079441         0.948286         1.276721
 H         0.024966         1.351623        -0.420361
 H        -0.608696        -0.189798        -0.170315
 H         2.340044         0.345373         1.977194
 H         1.641331        -1.326475         1.883874
 H         4.450811        -0.894481         1.843321
 H         3.647927        -2.198087         0.685071
 H         5.217506        -0.467019        -0.405419
 H         2.463907         2.052814        -0.948708
 H         3.195588        -0.522842        -2.440602
