19
Iteration:  2534charge 0 multiplicity 1
 C         0.217095         0.517125         0.206501
 C         1.593771        -0.022362         0.093324
 C         2.280531        -0.658325         1.432944
 C         3.739883        -1.170133         0.985142
 C         4.158575        -0.403262        -0.172506
 O         3.890965         1.008555         0.285119
 C         2.687129         1.035138        -0.559491
 C         3.031814        -0.190196        -1.350220
 O         1.675388        -0.809101        -1.080633
 H         0.222113         1.446506         0.930450
 H        -0.129320         0.911379        -0.739178
 H        -0.518390        -0.300706         0.552299
 H         2.279595         0.139063         2.144680
 H         1.550499        -1.422033         1.865617
 H         4.533724        -0.977262         1.711706
 H         3.621546        -2.192159         0.856801
 H         5.228863        -0.571151        -0.616781
 H         2.435153         2.017803        -0.893333
 H         3.219858        -0.312531        -2.384099
