19
Iteration:  2642
 C         0.178259         0.593366         0.172196
 C         1.633827         0.063425         0.193147
 C         2.226967        -0.645733         1.414150
 C         3.592977        -1.122401         1.001233
 C         4.161982        -0.403452        -0.277488
 O         3.966264         0.997635         0.193087
 C         2.638248         0.976270        -0.407916
 C         3.064041        -0.153787        -1.382972
 O         1.777149        -0.953131        -1.052479
 H        -0.087891         1.037732         1.188291
 H        -0.075451         1.264735        -0.579482
 H        -0.489601        -0.340327         0.180835
 H         2.434637         0.103713         2.105495
 H         1.546789        -1.445267         1.769350
 H         4.355995        -0.825775         1.815327
 H         3.573490        -2.188121         0.832641
 H         5.209095        -0.682747        -0.692193
 H         2.395898         2.004166        -0.654879
 H         3.302248        -0.109280        -2.436704
