19
Iteration:  3968
 C         0.249620         0.629735         0.152675
 C         1.671600         0.070440         0.171246
 C         2.237974        -0.607376         1.377795
 C         3.566347        -1.289100         0.989497
 C         4.107961        -0.387699        -0.227346
 O         3.903621         1.035979         0.201601
 C         2.675779         0.993100        -0.473023
 C         3.020133        -0.144785        -1.355451
 O         1.818583        -0.967104        -0.982049
 H         0.344889         1.446942         0.909702
 H        -0.170122         0.756528        -0.911209
 H        -0.549831         0.059681         0.636264
 H         2.425623         0.056782         2.182460
 H         1.420859        -1.374443         1.581968
 H         4.321466        -1.191716         1.748362
 H         3.474461        -2.374039         0.684186
 H         5.253181        -0.419774        -0.418623
 H         2.326086         1.980256        -0.785126
 H         3.260692         0.008579        -2.435371
