19
Iteration:  1530charge 0 multiplicity 1
 C         0.161268         0.516810         0.153426
 C         1.601210         0.090394         0.087915
 C         2.249321        -0.563760         1.394782
 C         3.563274        -1.246252         0.934169
 C         4.129290        -0.378550        -0.179375
 O         3.950097         1.072268         0.181871
 C         2.739754         1.020781        -0.540421
 C         3.034429        -0.238843        -1.262243
 O         1.839748        -0.921267        -0.924032
 H         0.071940         1.395236         0.822322
 H        -0.164802         0.697737        -0.935710
 H        -0.520230        -0.269437         0.601172
 H         2.350234         0.383252         2.114988
 H         1.507111        -1.192030         2.000963
 H         4.326613        -1.321711         1.738942
 H         3.077786        -2.210563         0.554725
 H         5.179350        -0.662940        -0.461233
 H         2.510092         1.948653        -0.974979
 H         3.301683        -0.363515        -2.314637
