19
Iteration:   610
 C         0.106774         0.442413         0.131924
 C         1.625362         0.125961         0.180414
 C         2.224929        -0.434119         1.471380
 C         3.502989        -1.235650         0.963432
 C         4.115483        -0.440326        -0.215130
 O         4.029336         1.018345         0.091912
 C         2.717743         1.034321        -0.417690
 C         3.019296        -0.172088        -1.358097
 O         1.899391        -0.973561        -0.962389
 H        -0.138620         1.464984         0.559162
 H        -0.210707         0.528657        -0.863276
 H        -0.392495        -0.403452         0.549777
 H         2.341181         0.484161         2.003633
 H         1.534311        -1.092472         2.015966
 H         4.176785        -1.276171         1.790356
 H         3.206152        -2.211879         0.749834
 H         5.144710        -0.705368        -0.466607
 H         2.443155         2.021978        -0.774196
 H         3.308453        -0.148864        -2.382957
