19
Iteration:  1784
 C         0.201540         0.598288         0.149104
 C         1.600252        -0.016580         0.108793
 C         2.267604        -0.640294         1.399018
 C         3.674104        -1.162507         1.110216
 C         4.136369        -0.406094        -0.154357
 O         3.975102         1.037118         0.139309
 C         2.638076         1.026272        -0.434505
 C         2.957652        -0.227134        -1.369061
 O         1.771496        -0.905792        -1.080176
 H         0.001294         1.077122         1.184297
 H         0.161674         1.302370        -0.641946
 H        -0.636663        -0.179188         0.098728
 H         2.283775         0.414044         1.898394
 H         1.641980        -1.288495         2.036291
 H         4.581497        -1.072389         1.823693
 H         3.526086        -2.242418         0.950142
 H         5.083360        -0.663022        -0.564230
 H         2.255307         1.897695        -0.774566
 H         3.463074        -0.187580        -2.343013
