19
Iteration:   195charge 0 multiplicity 1
 C         0.232303         0.545338         0.257839
 C         1.611354         0.035570         0.056196
 C         2.267451        -0.456857         1.349667
 C         3.522266        -1.204424         1.059619
 C         4.162434        -0.398678        -0.090703
 O         3.884396         1.079941         0.207824
 C         2.640737         0.930278        -0.627320
 C         3.126799        -0.292254        -1.278947
 O         1.786971        -0.913081        -1.083952
 H         0.144386         1.502692         0.994336
 H        -0.117723         0.847661        -0.716223
 H        -0.404013        -0.278218         0.587165
 H         2.595673         0.429863         1.930741
 H         1.670344        -1.125225         2.008141
 H         4.250186        -1.263758         1.872818
 H         3.315244        -2.323745         0.752038
 H         5.173061        -0.551838        -0.385092
 H         2.383720         1.912179        -1.156060
 H         3.499085        -0.500868        -2.260358
