19
Iteration:  3293charge 0 multiplicity 1
 C         0.218984         0.555143         0.332132
 C         1.571442         0.112836         0.126648
 C         2.180575        -0.503478         1.310532
 C         3.607256        -1.208914         0.888800
 C         4.204963        -0.418089        -0.143079
 O         3.912731         0.945861         0.328656
 C         2.663429         1.013611        -0.575910
 C         3.037195        -0.252393        -1.375458
 O         1.859572        -0.916794        -1.118294
 H         0.145090         1.239356         1.289795
 H        -0.293928         1.081138        -0.550786
 H        -0.486770        -0.175585         0.702614
 H         2.242327         0.314998         2.105683
 H         1.604093        -1.312416         1.845929
 H         4.260987        -0.974179         1.754806
 H         3.464804        -2.340754         0.793137
 H         5.281826        -0.399880        -0.408744
 H         2.304555         2.076374        -0.863497
 H         3.332114        -0.338278        -2.475756
