19
Iteration:  2240charge 0 multiplicity 1
 C         0.234126         0.632378         0.252004
 C         1.613239         0.004017         0.130473
 C         2.214667        -0.598252         1.358860
 C         3.657633        -1.154834         0.963790
 C         4.126108        -0.372386        -0.201796
 O         3.921308         1.056708         0.225974
 C         2.648369         0.987114        -0.516937
 C         3.000594        -0.221934        -1.310022
 O         1.815095        -0.974624        -1.072473
 H         0.419994         1.372435         1.127386
 H        -0.065871         1.018988        -0.692005
 H        -0.613444        -0.043367         0.591794
 H         2.439508         0.079400         2.232887
 H         1.751892        -1.552295         1.677493
 H         4.348895        -1.114319         1.829600
 H         3.443528        -2.239692         0.715385
 H         5.128825        -0.587143        -0.556107
 H         2.161924         1.837713        -0.866536
 H         3.279899        -0.173036        -2.307156
