19
Iteration:   651charge 0 multiplicity 1
 C         0.166233         0.481356         0.219941
 C         1.632195         0.114160         0.160430
 C         2.241704        -0.540679         1.389018
 C         3.592561        -1.189964         1.071207
 C         4.138594        -0.387713        -0.134026
 O         3.971975         1.095540         0.118928
 C         2.764732         0.998704        -0.585348
 C         3.086267        -0.335266        -1.287610
 O         1.671295        -0.871549        -1.053988
 H        -0.177357         1.108068         1.101673
 H        -0.027082         1.074089        -0.664903
 H        -0.411310        -0.444816         0.098417
 H         2.471124         0.156088         2.189533
 H         1.481556        -1.310462         1.758470
 H         4.412985        -1.370980         1.848653
 H         3.401898        -2.222632         0.681666
 H         5.245702        -0.554326        -0.391416
 H         2.381878         1.963433        -0.970895
 H         3.474187        -0.437655        -2.366391
