19
Iteration:   244charge 0 multiplicity 1
 C         0.226119         0.600775         0.196838
 C         1.637848         0.141631         0.129867
 C         2.108155        -0.669977         1.308413
 C         3.580255        -1.075669         1.055682
 C         4.077123        -0.406618        -0.188334
 O         3.927208         1.040268         0.110994
 C         2.694740         1.000094        -0.562827
 C         3.062857        -0.304731        -1.276781
 O         1.891111        -0.971671        -0.907938
 H         0.278376         1.358793         0.876456
 H        -0.078454         1.102528        -0.811637
 H        -0.556981        -0.151454         0.513357
 H         2.080775        -0.188657         2.292387
 H         1.427409        -1.520225         1.264207
 H         4.289042        -0.741732         1.817204
 H         3.797694        -2.074420         0.987841
 H         5.172663        -0.626529        -0.476601
 H         2.527202         1.969353        -0.967784
 H         3.339775        -0.426929        -2.368284
