19
Iteration:  3378
 C         0.167308         0.560514         0.223096
 C         1.655409         0.084329         0.103139
 C         2.250117        -0.617755         1.313259
 C         3.626050        -1.200024         0.959177
 C         4.104370        -0.374682        -0.232238
 O         3.905977         1.003314         0.274134
 C         2.732652         1.103395        -0.422944
 C         3.033341        -0.319406        -1.366975
 O         1.766936        -0.932513        -1.024109
 H        -0.017925         1.439136         0.950161
 H         0.047193         1.180998        -0.684535
 H        -0.427918        -0.310604         0.325902
 H         2.343218         0.160646         2.009521
 H         1.560596        -1.373181         1.802102
 H         4.382810        -1.070503         1.740225
 H         3.487151        -2.265721         1.016190
 H         5.204740        -0.333338        -0.586605
 H         2.535039         2.092096        -0.688222
 H         3.300160        -0.268302        -2.474239
