19
Iteration:  1638
 C         0.277879         0.602814         0.225126
 C         1.634094         0.023940         0.150354
 C         2.115333        -0.670359         1.406726
 C         3.556813        -1.205211         1.021098
 C         4.144228        -0.327340        -0.110119
 O         3.958272         1.180492         0.041078
 C         2.696532         0.944351        -0.545320
 C         3.075758        -0.232102        -1.294709
 O         1.811575        -0.949989        -1.014419
 H         0.211902         1.262735         1.071471
 H        -0.140007         1.062855        -0.733915
 H        -0.415790        -0.237185         0.363037
 H         2.168373         0.117519         2.159233
 H         1.396164        -1.427844         1.726618
 H         4.218345        -1.507132         1.823556
 H         3.293277        -2.267507         0.659960
 H         5.246542        -0.607624        -0.255285
 H         2.325921         1.917796        -0.843155
 H         3.389244        -0.402500        -2.311948
