19
Iteration:  2973charge 0 multiplicity 1
 C         0.243478         0.589926         0.191164
 C         1.607220         0.009073         0.148626
 C         2.240111        -0.698259         1.348075
 C         3.552802        -1.219037         0.970641
 C         4.093410        -0.343512        -0.150709
 O         4.038638         1.093176         0.076460
 C         2.649764         1.032867        -0.490158
 C         3.062403        -0.203877        -1.252357
 O         1.781165        -0.885631        -0.951886
 H        -0.211067         1.132895         1.133159
 H         0.045292         1.155285        -0.681786
 H        -0.520967        -0.227549         0.170997
 H         2.206051         0.057408         2.097457
 H         1.559861        -1.623432         1.626676
 H         4.339778        -1.387731         1.831828
 H         3.321193        -2.206701         0.454760
 H         5.153789        -0.671442        -0.371034
 H         2.287055         2.002612        -0.800366
 H         3.333072        -0.326231        -2.309237
