19
Iteration:  1549
 C         0.171530         0.484298         0.124836
 C         1.605190         0.036023         0.266256
 C         2.206770        -0.549200         1.459431
 C         3.477142        -1.205655         0.978630
 C         4.191222        -0.347891        -0.103878
 O         4.092562         1.113760         0.041590
 C         2.679210         1.004872        -0.514859
 C         3.053718        -0.281507        -1.308188
 O         1.761710        -0.877757        -1.020947
 H        -0.057387         1.132902         0.926219
 H        -0.002693         0.647209        -0.988679
 H        -0.457909        -0.333342         0.333861
 H         2.570967        -0.016257         2.284844
 H         1.379717        -1.133781         1.837462
 H         4.073452        -1.477826         1.765316
 H         3.207868        -2.133312         0.349098
 H         5.278799        -0.577346        -0.295286
 H         2.203199         1.902225        -0.801723
 H         3.538366        -0.244369        -2.240772
