19
Iteration:  1431charge 0 multiplicity 1
 C         0.155446         0.584235         0.175343
 C         1.637139         0.094250         0.120723
 C         2.194192        -0.607461         1.330483
 C         3.644079        -1.128081         1.008155
 C         4.106639        -0.398266        -0.218564
 O         3.981776         0.998938         0.208151
 C         2.742067         1.061062        -0.539567
 C         3.042752        -0.258556        -1.330231
 O         1.769032        -0.962928        -0.937284
 H        -0.064034         1.054391         1.107462
 H        -0.140587         1.154823        -0.785421
 H        -0.530401        -0.288053         0.167834
 H         2.143909         0.128124         2.260979
 H         1.555792        -1.472100         1.670451
 H         4.175561        -0.816659         1.887376
 H         3.826376        -2.244761         0.839787
 H         5.185462        -0.587287        -0.498715
 H         2.385999         1.981253        -0.853863
 H         3.199796        -0.426696        -2.356701
