19
Iteration:  1296
 C         0.214803         0.676686         0.258116
 C         1.558804        -0.005883         0.169176
 C         2.158928        -0.697800         1.350951
 C         3.659979        -1.102374         1.034006
 C         4.141996        -0.365250        -0.234636
 O         3.934931         1.071905         0.185064
 C         2.743392         1.045810        -0.573789
 C         3.057423        -0.283630        -1.353620
 O         1.804706        -1.001826        -1.009126
 H         0.182475         1.379080         1.165478
 H         0.005916         1.189674        -0.651869
 H        -0.575553        -0.057530         0.510140
 H         2.060966        -0.147874         2.354776
 H         1.422450        -1.532939         1.551055
 H         4.173887        -0.712816         1.875599
 H         3.708254        -2.204246         0.820201
 H         5.198867        -0.549665        -0.508467
 H         2.299235         1.888838        -0.941185
 H         3.283653        -0.361489        -2.467308
