19
Iteration:  4018charge 0 multiplicity 1
 C         0.174170         0.567791         0.315402
 C         1.608502         0.150846         0.100446
 C         2.158824        -0.647143         1.286547
 C         3.603314        -1.249890         1.076834
 C         4.168851        -0.472557        -0.122038
 O         3.957597         1.072725         0.114758
 C         2.698484         1.011796        -0.586069
 C         3.058137        -0.230428        -1.306735
 O         1.825564        -0.824467        -1.020455
 H        -0.050821         0.835698         1.361213
 H        -0.259889         1.207057        -0.455365
 H        -0.338710        -0.404420         0.309483
 H         2.309218        -0.013105         2.221211
 H         1.460093        -1.495946         1.373382
 H         4.260980        -1.078967         1.981135
 H         3.512450        -2.266196         0.637737
 H         5.173456        -0.647576        -0.491904
 H         2.368603         2.053614        -0.916153
 H         3.408951        -0.493197        -2.377134
