19
Iteration:  3348
 C         0.143568         0.542949         0.147584
 C         1.650180         0.070339         0.180569
 C         2.145930        -0.663294         1.453524
 C         3.578931        -1.235772         0.964953
 C         4.140352        -0.372485        -0.177851
 O         4.056359         1.060631         0.056477
 C         2.696415         1.038567        -0.384457
 C         3.047168        -0.191900        -1.352522
 O         1.809433        -0.894188        -0.956614
 H        -0.162299         1.144795         1.030275
 H        -0.021225         1.042594        -0.863308
 H        -0.393525        -0.414629         0.041199
 H         2.130368         0.134261         2.220571
 H         1.548657        -1.523600         1.722595
 H         4.370544        -1.500752         1.654036
 H         3.125710        -2.110741         0.447754
 H         5.154423        -0.547531        -0.426537
 H         2.340206         2.061563        -0.674342
 H         3.246989         0.018686        -2.400182
