19
Iteration:  2516charge 0 multiplicity 1
 C         0.162257         0.589573         0.162632
 C         1.635626         0.073349         0.203367
 C         2.299236        -0.755331         1.356081
 C         3.701273        -1.248836         1.063489
 C         4.129670        -0.355600        -0.157653
 O         3.970676         1.101692         0.126178
 C         2.643747         0.992278        -0.449290
 C         2.934140        -0.208877        -1.314743
 O         1.749052        -0.874365        -1.092253
 H        -0.058859         1.321464         0.898282
 H         0.076287         1.016606        -0.866826
 H        -0.577164        -0.132719         0.169077
 H         2.403385        -0.053244         2.308005
 H         1.660348        -1.488898         1.868094
 H         4.373432        -1.137061         1.947167
 H         3.901847        -2.387707         0.743789
 H         5.090633        -0.433523        -0.604469
 H         2.251136         2.032541        -0.672342
 H         3.305169        -0.185609        -2.374365
