19
Iteration:  1804
 C         0.172723         0.489670         0.195702
 C         1.548781         0.043181         0.170032
 C         2.195054        -0.523290         1.415765
 C         3.524228        -1.130023         0.966254
 C         4.143820        -0.399335        -0.253338
 O         3.985749         0.995712         0.184683
 C         2.749154         1.017327        -0.499989
 C         3.076241        -0.186873        -1.321220
 O         1.813698        -0.938810        -1.005735
 H         0.021475         1.143931         1.123899
 H        -0.152500         1.002407        -0.637001
 H        -0.530732        -0.432350         0.308956
 H         2.368399         0.187503         2.248649
 H         1.519804        -1.244577         1.749920
 H         4.409291        -0.918839         1.594486
 H         3.689726        -2.210336         0.788059
 H         5.111416        -0.838867        -0.581220
 H         2.599407         2.092956        -0.812780
 H         3.267851        -0.195185        -2.396422
