19
Iteration:  1102charge 0 multiplicity 1
 C         0.112463         0.463766         0.202996
 C         1.628907         0.050529         0.197538
 C         2.245591        -0.578382         1.433008
 C         3.540031        -1.183948         1.007296
 C         4.116625        -0.373612        -0.118085
 O         4.046710         1.095176         0.079881
 C         2.765524         1.033326        -0.552047
 C         3.045959        -0.266059        -1.279419
 O         1.746612        -0.845586        -1.035874
 H         0.075145         1.424372         0.792476
 H        -0.253060         0.406276        -0.825138
 H        -0.488718        -0.404415         0.375779
 H         2.297184         0.201911         2.229087
 H         1.741035        -1.449452         1.896996
 H         4.234388        -1.481776         1.820478
 H         3.317806        -2.148777         0.429495
 H         5.174333        -0.681673        -0.430264
 H         2.522388         2.063678        -1.012340
 H         3.243454        -0.435516        -2.346737
