19
Iteration:  1951
 C         0.181448         0.505857         0.336375
 C         1.629676         0.086227         0.079659
 C         2.129069        -0.616977         1.404845
 C         3.546686        -1.133444         0.976370
 C         4.151564        -0.432712        -0.194411
 O         3.972898         1.032351         0.146825
 C         2.708696         1.022599        -0.586986
 C         3.043074        -0.201708        -1.332641
 O         1.878963        -0.872862        -1.008622
 H        -0.088617         0.852989         1.314004
 H        -0.343599         1.226621        -0.472948
 H        -0.346758        -0.433947         0.387303
 H         2.127806         0.229653         2.108050
 H         1.506408        -1.520636         1.796590
 H         4.189504        -1.058586         1.891020
 H         3.489452        -2.249988         0.837747
 H         5.121557        -0.815625        -0.635916
 H         2.638479         1.986394        -0.903936
 H         3.413696        -0.295625        -2.407835
