19
Iteration:  3279charge 0 multiplicity 1
 C         0.198530         0.602555         0.357052
 C         1.611246        -0.017594         0.025688
 C         2.209316        -0.602596         1.318807
 C         3.569171        -1.187937         0.987237
 C         4.095315        -0.360266        -0.223856
 O         3.915910         1.026710         0.292941
 C         2.713872         0.975169        -0.500674
 C         3.098219        -0.201188        -1.328165
 O         1.795968        -0.923764        -1.102968
 H         0.465408         1.491171         1.133631
 H        -0.217674         1.050677        -0.593977
 H        -0.455690        -0.238791         0.662209
 H         2.488590         0.254871         1.890444
 H         1.419752        -1.216818         1.863796
 H         4.292962        -1.025600         1.828964
 H         3.599124        -2.263096         0.691065
 H         5.173397        -0.727115        -0.451466
 H         2.464051         1.894748        -0.950560
 H         3.443418        -0.142699        -2.420274
