19
Iteration:  2268
 C         0.171647         0.549041         0.169660
 C         1.626068         0.028313         0.158961
 C         2.223977        -0.546165         1.392611
 C         3.612085        -1.211371         0.911757
 C         4.092363        -0.393165        -0.259875
 O         3.943211         0.989477         0.197160
 C         2.701321         1.034155        -0.455818
 C         3.011430        -0.163695        -1.340613
 O         1.858649        -0.924452        -0.921094
 H        -0.011945         1.212668         0.973955
 H        -0.142097         0.978407        -0.864276
 H        -0.452499        -0.334189         0.341073
 H         2.610140         0.160107         2.108017
 H         1.639812        -1.326344         1.946367
 H         4.317355        -1.066885         1.739211
 H         3.484862        -2.283031         0.613831
 H         5.132318        -0.581355        -0.650865
 H         2.159197         2.036984        -0.697285
 H         3.184435        -0.177251        -2.514898
