19
Iteration:  1685charge 0 multiplicity 1
 C         0.151801         0.492405         0.142235
 C         1.618948         0.078211         0.114899
 C         2.295914        -0.506415         1.390870
 C         3.681960        -1.219393         1.032687
 C         4.120337        -0.434188        -0.198811
 O         3.962027         0.993955         0.240176
 C         2.658685         1.045875        -0.509432
 C         3.046575        -0.270269        -1.329263
 O         1.743747        -0.832302        -1.036722
 H        -0.122278         1.508077         0.541448
 H        -0.156105         0.400202        -0.850846
 H        -0.551800        -0.298580         0.578987
 H         2.649527         0.295807         2.155834
 H         1.506170        -1.124714         1.849712
 H         4.180529        -1.280190         2.010113
 H         3.590835        -2.285719         0.877634
 H         5.164465        -0.563307        -0.486629
 H         2.323482         1.939201        -0.892592
 H         3.249391        -0.184140        -2.428390
