19
Iteration:  3443
 C         0.215237         0.525870         0.294439
 C         1.562507         0.065383         0.136839
 C         2.132230        -0.630799         1.312972
 C         3.540959        -1.209032         0.956545
 C         4.142423        -0.343818        -0.251603
 O         3.992405         1.049847         0.166044
 C         2.705303         1.031854        -0.531822
 C         3.083465        -0.192609        -1.278975
 O         1.847146        -0.944591        -0.948401
 H         0.291215         1.512283         0.904060
 H        -0.132030         0.950864        -0.662711
 H        -0.375577        -0.288984         0.695561
 H         2.029720         0.017106         2.156802
 H         1.495863        -1.583619         1.448631
 H         4.314219        -1.262876         1.748624
 H         3.319306        -2.191283         0.490143
 H         5.304107        -0.511562        -0.234777
 H         2.523515         2.003319        -0.967585
 H         3.229398        -0.065787        -2.391649
