19
Iteration:  2618
 C         0.149180         0.562480         0.145776
 C         1.611202         0.010996         0.142031
 C         2.274285        -0.600020         1.336237
 C         3.686072        -1.244067         0.987235
 C         4.130970        -0.360629        -0.251991
 O         3.933464         0.978900         0.276526
 C         2.688160         1.025278        -0.491877
 C         2.957716        -0.144987        -1.323580
 O         1.804400        -0.892928        -0.965561
 H         0.008416         1.160925         1.009808
 H        -0.016242         1.133233        -0.709434
 H        -0.656889        -0.204432         0.217935
 H         2.386358         0.246638         2.063042
 H         1.668063        -1.423770         1.694771
 H         4.530700        -0.976180         1.726112
 H         3.564129        -2.367932         0.846978
 H         5.073521        -0.457862        -0.778864
 H         2.534844         2.082845        -0.826493
 H         3.145119        -0.334190        -2.411228
