19
Iteration:  4731
 C         0.173542         0.573863         0.243044
 C         1.570794         0.114260         0.170310
 C         2.292431        -0.629136         1.355270
 C         3.639351        -1.271874         0.996079
 C         4.096574        -0.393181        -0.151573
 O         3.950847         1.112580         0.151225
 C         2.674241         1.030662        -0.514095
 C         3.035101        -0.305994        -1.300704
 O         1.810902        -0.889781        -1.029627
 H        -0.065565         1.361128         0.916469
 H        -0.019961         0.959864        -0.764317
 H        -0.497670        -0.306084         0.249315
 H         2.528299         0.151934         2.020770
 H         1.506370        -1.235903         1.867637
 H         4.345520        -1.204347         1.824957
 H         3.411427        -2.335322         0.650603
 H         5.079588        -0.695899        -0.446323
 H         2.334119         1.918182        -1.129426
 H         3.422041        -0.371704        -2.383807
