19
Iteration:  3932charge 0 multiplicity 1
 C         0.141114         0.495944         0.171941
 C         1.573507         0.056991         0.099318
 C         2.280407        -0.564989         1.290519
 C         3.615603        -1.271493         0.969634
 C         4.139534        -0.402826        -0.152775
 O         3.992179         1.042409         0.222149
 C         2.759398         1.009388        -0.457845
 C         3.051578        -0.220438        -1.268813
 O         1.714055        -0.828813        -1.028059
 H         0.192230         1.481408         0.732576
 H        -0.325901         0.887904        -0.756213
 H        -0.413053        -0.273052         0.757014
 H         2.485273         0.172113         2.129615
 H         1.489168        -1.239813         1.745515
 H         4.284793        -1.241786         1.865234
 H         3.419882        -2.343806         0.689103
 H         5.104924        -0.572513        -0.647836
 H         2.418813         2.042788        -0.766471
 H         3.326601        -0.334368        -2.349428
