19
Iteration:   538charge 0 multiplicity 1
 C         0.271451         0.679272         0.381631
 C         1.590097        -0.022167         0.094911
 C         1.997707        -0.765641         1.291987
 C         3.512603        -1.057965         1.031978
 C         4.123102        -0.350986        -0.144010
 O         3.985096         1.208525         0.014070
 C         2.769229         0.986001        -0.583714
 C         3.093359        -0.329135        -1.307504
 O         1.904993        -1.009196        -0.944590
 H         0.490816         1.331931         1.122491
 H        -0.081773         1.460215        -0.420956
 H        -0.501265        -0.140697         0.444058
 H         1.849868        -0.175440         2.267937
 H         1.385476        -1.659766         1.298816
 H         4.045405        -0.905123         2.018820
 H         3.647555        -2.231049         0.870009
 H         5.156088        -0.635206        -0.320103
 H         2.204320         1.884367        -0.883305
 H         3.293883        -0.562407        -2.370752
