19
Iteration:   779
 C         0.131868         0.469404         0.271511
 C         1.634326         0.132177         0.053060
 C         2.285751        -0.431502         1.375536
 C         3.530396        -1.243425         0.965005
 C         4.095629        -0.433368        -0.212330
 O         3.896553         1.009672         0.289073
 C         2.770167         1.034153        -0.495140
 C         3.030645        -0.226251        -1.348334
 O         1.868419        -0.944149        -1.056473
 H         0.154706         1.383423         0.816415
 H        -0.434584         0.551381        -0.762383
 H        -0.382318        -0.346143         0.909843
 H         2.757978         0.308330         2.085841
 H         1.628893        -0.973441         2.014545
 H         4.303387        -1.062876         1.683653
 H         3.268598        -2.260818         0.510444
 H         5.035822        -0.796559        -0.599521
 H         2.363457         1.985381        -0.930706
 H         3.335813        -0.226027        -2.431820
