19
Iteration:  2854
 C         0.197187         0.508120         0.189625
 C         1.662087         0.109485         0.196219
 C         2.171366        -0.638916         1.374770
 C         3.516363        -1.210928         0.877992
 C         4.066148        -0.400671        -0.211362
 O         3.994466         1.087737         0.189783
 C         2.701809         1.031011        -0.519121
 C         3.030438        -0.249642        -1.322307
 O         1.876354        -0.880961        -0.904081
 H         0.085779         1.120431         1.060903
 H         0.092659         1.030794        -0.730928
 H        -0.503045        -0.273426         0.310314
 H         2.309881        -0.063313         2.243486
 H         1.520568        -1.512681         1.504757
 H         4.259714        -1.067368         1.655420
 H         3.400521        -2.238616         0.539832
 H         5.189012        -0.551202        -0.442582
 H         2.316201         1.944892        -1.005472
 H         3.269729        -0.249109        -2.402420
