19
Iteration:  3461
 C         0.159867         0.564262         0.149342
 C         1.648159         0.104892         0.144058
 C         2.271182        -0.668394         1.405314
 C         3.645579        -1.251831         0.953645
 C         4.132277        -0.381791        -0.199598
 O         3.940371         1.049054         0.235584
 C         2.686559         1.023477        -0.489331
 C         2.990140        -0.254012        -1.344989
 O         1.790186        -0.848270        -1.007357
 H        -0.051237         1.392239         0.872832
 H        -0.246993         0.968573        -0.808195
 H        -0.622876        -0.236014         0.409437
 H         2.610184         0.081161         2.213813
 H         1.618655        -1.467891         1.810886
 H         4.221793        -1.017396         1.887392
 H         3.605469        -2.367137         0.681898
 H         5.113146        -0.671023        -0.668059
 H         2.253354         2.119905        -0.781991
 H         3.421386        -0.425615        -2.361110
