19
Iteration:  1326charge 0 multiplicity 1
 C         0.269320         0.616749         0.185946
 C         1.610929        -0.082038         0.143165
 C         2.240897        -0.661404         1.384758
 C         3.718170        -1.128453         1.212422
 C         4.111471        -0.400244        -0.128488
 O         3.970310         1.059721         0.078935
 C         2.681630         0.955602        -0.460794
 C         3.001096        -0.202365        -1.355097
 O         1.656346        -0.877698        -1.171953
 H         0.356985         1.534978         0.855433
 H         0.024875         0.952179        -0.791591
 H        -0.394959        -0.220174         0.556451
 H         2.245358         0.131451         2.124635
 H         1.549145        -1.467715         1.600455
 H         4.313452        -0.917234         2.207858
 H         3.839560        -2.206407         1.042192
 H         5.168172        -0.532954        -0.321564
 H         2.071252         1.985833        -0.722129
 H         3.209677        -0.123532        -2.526735
