19
Iteration:  2061
 C         0.153819         0.555300         0.273817
 C         1.625885         0.060930         0.123311
 C         2.284346        -0.681695         1.347611
 C         3.749559        -1.104418         1.109852
 C         4.121506        -0.447647        -0.156552
 O         3.869395         1.055571         0.166522
 C         2.663328         0.940657        -0.539696
 C         3.021906        -0.299695        -1.288924
 O         1.753431        -0.794795        -1.143702
 H         0.207394         1.405962         0.958094
 H        -0.167719         1.144309        -0.733686
 H        -0.477494        -0.234929         0.687636
 H         2.063697         0.160074         1.993072
 H         1.582391        -1.533858         1.696789
 H         4.524324        -0.956854         1.927809
 H         3.792294        -2.247399         0.832520
 H         5.143523        -0.565755        -0.662179
 H         2.504685         1.952354        -0.809520
 H         3.428085        -0.350830        -2.363823
