19
Iteration:  1075charge 0 multiplicity 1
 C         0.126126         0.410408         0.182526
 C         1.637929         0.107593         0.139313
 C         2.168489        -0.464861         1.424220
 C         3.430006        -1.282386         0.943535
 C         4.107388        -0.371027        -0.242567
 O         4.091284         1.032070         0.093940
 C         2.688008         1.078664        -0.491749
 C         3.039154        -0.148534        -1.338144
 O         1.933301        -0.948204        -0.854942
 H        -0.030037         1.108736         0.961450
 H        -0.304667         0.734678        -0.812020
 H        -0.330092        -0.619086         0.333956
 H         2.520953         0.430695         2.056357
 H         1.421159        -1.105119         1.946886
 H         4.097233        -1.475314         1.825716
 H         3.307174        -2.297593         0.543941
 H         5.066949        -0.701141        -0.513825
 H         2.473229         2.057030        -0.797179
 H         3.045501        -0.203044        -2.443798
