19
Iteration:  1943
 C         0.177075         0.490261         0.318817
 C         1.584047         0.010090         0.146928
 C         2.131283        -0.631118         1.372772
 C         3.531798        -1.177679         0.993872
 C         4.124366        -0.376353        -0.184509
 O         4.034919         1.115644         0.075317
 C         2.766002         1.086174        -0.535716
 C         3.094997        -0.264830        -1.309006
 O         1.807441        -0.881787        -1.027231
 H         0.082551         0.965881         1.321886
 H        -0.169385         1.216490        -0.483192
 H        -0.485764        -0.412448         0.230211
 H         2.144991         0.028768         2.260333
 H         1.386932        -1.492674         1.614548
 H         4.268600        -1.050872         1.788650
 H         3.449850        -2.282925         0.865244
 H         5.093255        -0.930756        -0.408360
 H         2.446897         2.145987        -0.929332
 H         3.410201        -0.334923        -2.344743
