19
Iteration:  1894charge 0 multiplicity 1
 C         0.200755         0.627217         0.204208
 C         1.653418         0.065053         0.122478
 C         2.217280        -0.697933         1.351052
 C         3.659975        -1.152605         0.952406
 C         4.091028        -0.371240        -0.222125
 O         3.923163         1.037020         0.272528
 C         2.661260         0.990145        -0.537781
 C         2.985100        -0.245338        -1.354163
 O         1.840380        -0.911178        -0.951689
 H         0.190129         1.452583         0.949846
 H        -0.047379         1.143899        -0.775880
 H        -0.586206        -0.133176         0.307937
 H         2.207226         0.025747         2.199319
 H         1.579602        -1.560115         1.585784
 H         4.321550        -0.886696         1.820868
 H         3.664830        -2.237673         0.929664
 H         4.991666        -0.748016        -0.665445
 H         2.429487         1.895172        -0.977644
 H         3.422300        -0.323091        -2.367803
