19
Iteration:  1423
 C         0.156971         0.559716         0.155544
 C         1.581332         0.115476         0.113553
 C         2.254178        -0.592631         1.386876
 C         3.660045        -1.139407         1.008464
 C         4.160503        -0.368559        -0.143906
 O         3.926406         0.971853         0.198540
 C         2.740792         1.006640        -0.490864
 C         2.940251        -0.266546        -1.349873
 O         1.791998        -0.941770        -1.009493
 H         0.084430         1.193143         1.044927
 H        -0.003097         1.218076        -0.677775
 H        -0.441136        -0.374501         0.046197
 H         2.445446         0.273013         1.957030
 H         1.544288        -1.279027         1.807354
 H         4.382462        -0.969386         1.887866
 H         3.667935        -2.177825         0.976946
 H         5.059950        -0.712315        -0.619640
 H         2.471076         2.070647        -0.905519
 H         3.377402        -0.277506        -2.369663
