19
Iteration:  2472
 C         0.170753         0.533768         0.340323
 C         1.653004         0.087686         0.163799
 C         2.170561        -0.623223         1.315114
 C         3.553340        -1.235399         0.952839
 C         4.156407        -0.360598        -0.208421
 O         3.954303         1.070629         0.186485
 C         2.676748         1.111381        -0.578907
 C         3.047609        -0.193709        -1.362607
 O         1.879864        -0.962915        -0.984675
 H        -0.109726         0.914860         1.288594
 H        -0.250513         1.045319        -0.544778
 H        -0.337419        -0.380435         0.294265
 H         2.276518         0.089193         2.234074
 H         1.423713        -1.367714         1.628590
 H         4.238911        -1.374889         1.822155
 H         3.442064        -2.346684         0.536948
 H         5.152331        -0.706778        -0.311798
 H         2.285321         2.115981        -0.905545
 H         3.412318        -0.318980        -2.410351
