19
Iteration:  2482charge 0 multiplicity 1
 C         0.151439         0.504704         0.268732
 C         1.639842         0.108408         0.136477
 C         2.130028        -0.724776         1.397093
 C         3.495220        -1.187239         0.899833
 C         4.148440        -0.280126        -0.200217
 O         4.021528         1.123357         0.187462
 C         2.755133         1.017977        -0.536980
 C         2.997870        -0.222681        -1.416770
 O         1.915586        -0.979152        -0.911339
 H         0.109985         1.068136         1.216625
 H        -0.148671         1.297333        -0.394308
 H        -0.469940        -0.321927         0.301678
 H         2.286353         0.001770         2.302221
 H         1.343662        -1.519001         1.494748
 H         4.201469        -1.134651         1.758638
 H         3.328035        -2.286582         0.510529
 H         5.118528        -0.565729        -0.596789
 H         2.419194         2.031414        -0.765089
 H         3.026917        -0.245151        -2.494277
