19
Iteration:  1004
 C         0.269548         0.653324         0.367011
 C         1.627678         0.038200         0.111145
 C         2.053680        -0.772076         1.315335
 C         3.555599        -1.073483         1.073315
 C         4.091238        -0.317758        -0.200629
 O         3.986146         1.109979         0.084167
 C         2.681718         0.979921        -0.611864
 C         3.078033        -0.283604        -1.296845
 O         1.853626        -0.967947        -1.012463
 H         0.377677         1.153703         1.432782
 H        -0.071146         1.390171        -0.408073
 H        -0.441329        -0.200932         0.408166
 H         1.940730        -0.315726         2.306555
 H         1.528321        -1.734765         1.187585
 H         4.362197        -0.849407         1.844867
 H         3.662919        -2.208221         1.094892
 H         5.182650        -0.535218        -0.464206
 H         2.216584         1.945347        -1.029808
 H         3.531105        -0.383243        -2.287989
