19
Iteration:   229
 C         0.244558         0.677492         0.212779
 C         1.580323        -0.041535         0.074241
 C         2.197872        -0.649332         1.405078
 C         3.649654        -1.152724         1.121173
 C         4.180016        -0.381228        -0.101724
 O         3.926836         1.100221         0.157732
 C         2.698431         0.988102        -0.615978
 C         3.050895        -0.271013        -1.366379
 O         1.763443        -0.955794        -1.056021
 H         0.146542         1.563777         0.961532
 H        -0.131953         1.022787        -0.762973
 H        -0.567390        -0.050177         0.460828
 H         2.143846         0.193214         2.151713
 H         1.606942        -1.483812         1.815539
 H         4.238053        -0.888772         1.993449
 H         3.560329        -2.293456         1.112699
 H         5.177380        -0.641688        -0.351934
 H         2.133185         1.821190        -1.097123
 H         3.445183        -0.366820        -2.338280
