19
Iteration:  2620
 C         0.143020         0.557882         0.146231
 C         1.598891         0.001429         0.131068
 C         2.263430        -0.574774         1.351533
 C         3.696001        -1.241326         0.973375
 C         4.119443        -0.378365        -0.258839
 O         3.928121         0.966685         0.283343
 C         2.691203         1.029912        -0.487823
 C         2.948231        -0.152991        -1.318959
 O         1.828158        -0.885243        -0.967221
 H        -0.010678         1.254171         1.045829
 H         0.038946         1.206392        -0.677504
 H        -0.702047        -0.228702         0.203482
 H         2.353914         0.192638         2.003719
 H         1.713951        -1.465676         1.694348
 H         4.553239        -0.877299         1.626936
 H         3.614744        -2.296231         0.867506
 H         5.142515        -0.495825        -0.799246
 H         2.522010         2.063634        -0.768438
 H         3.164371        -0.335094        -2.359539
