19
Iteration:  3827charge 0 multiplicity 1
 C         0.234388         0.591630         0.183425
 C         1.638586         0.039925         0.178548
 C         2.212268        -0.640708         1.364238
 C         3.531463        -1.222367         0.955713
 C         4.148087        -0.370748        -0.210504
 O         4.006871         1.029705         0.139324
 C         2.686395         1.090494        -0.450733
 C         3.006553        -0.158865        -1.294617
 O         1.798782        -0.948489        -1.014156
 H        -0.118774         1.114133         1.072272
 H        -0.093002         1.038037        -0.802153
 H        -0.355109        -0.310910         0.201757
 H         2.456013         0.063200         2.208708
 H         1.446630        -1.411860         1.741878
 H         4.180685        -1.247047         1.961863
 H         3.342688        -2.335528         0.654470
 H         5.281116        -0.672082        -0.415925
 H         2.280302         2.083542        -0.633310
 H         3.216210        -0.343651        -2.379297
