19
Iteration:  2853charge 0 multiplicity 1
 C         0.198971         0.509492         0.190699
 C         1.659323         0.106805         0.189379
 C         2.177546        -0.636926         1.375647
 C         3.514166        -1.203295         0.872921
 C         4.065788        -0.406294        -0.212731
 O         3.986504         1.080512         0.189306
 C         2.698038         1.033867        -0.514723
 C         3.032968        -0.258616        -1.317205
 O         1.882005        -0.873642        -0.909777
 H         0.048762         1.119525         1.070348
 H         0.107898         1.022177        -0.677917
 H        -0.500222        -0.247553         0.312501
 H         2.318362        -0.056208         2.247629
 H         1.495776        -1.533262         1.516782
 H         4.292421        -1.043350         1.674494
 H         3.394367        -2.250245         0.555685
 H         5.188971        -0.513081        -0.449674
 H         2.342212         1.945088        -1.006837
 H         3.272456        -0.263340        -2.389905
