19
Iteration:  4542
 C         0.170303         0.497662         0.255484
 C         1.604837         0.013959         0.080246
 C         2.234788        -0.529783         1.394958
 C         3.549965        -1.231899         1.033652
 C         4.091497        -0.490263        -0.141203
 O         4.001791         1.047705         0.100693
 C         2.737405         1.121823        -0.520794
 C         3.032929        -0.174195        -1.276023
 O         1.817985        -0.910683        -1.068608
 H         0.108874         1.221510         1.098717
 H        -0.228498         1.020654        -0.663205
 H        -0.527823        -0.311203         0.433024
 H         2.424106         0.238149         2.147588
 H         1.616483        -1.253666         1.906210
 H         4.323718        -1.189305         1.821756
 H         3.407416        -2.283512         0.694388
 H         5.053590        -0.695685        -0.484032
 H         2.339167         2.109873        -0.774445
 H         3.324716        -0.310379        -2.286781
