19
Iteration:   404charge 0 multiplicity 1
 C         0.193837         0.645744         0.231782
 C         1.563541         0.090299         0.102010
 C         2.132375        -0.634775         1.294805
 C         3.700928        -1.043399         1.033749
 C         4.148768        -0.415827        -0.241042
 O         3.892234         0.949912         0.271955
 C         2.756273         0.999271        -0.596070
 C         3.080106        -0.256131        -1.349708
 O         1.807890        -1.006904        -0.955931
 H         0.057149         1.449042         1.046036
 H        -0.075177         1.119377        -0.721437
 H        -0.638984        -0.045509         0.581688
 H         2.013695         0.030350         2.216768
 H         1.402531        -1.416684         1.457261
 H         4.278428        -0.486488         1.783071
 H         3.840580        -2.237409         1.145554
 H         5.157004        -0.494741        -0.514090
 H         2.530581         1.954136        -1.077122
 H         3.338904        -0.365595        -2.351482
