19
Iteration:  3846charge 0 multiplicity 1
 C         0.205032         0.570081         0.124841
 C         1.613775         0.001531         0.132182
 C         2.249553        -0.625808         1.454946
 C         3.694441        -1.240903         0.976917
 C         4.078909        -0.359062        -0.248093
 O         3.925914         1.055834         0.253995
 C         2.695355         0.954177        -0.506100
 C         3.042370        -0.231806        -1.306942
 O         1.728902        -0.804607        -1.029348
 H         0.123870         1.131171         1.128415
 H         0.276323         1.353574        -0.682149
 H        -0.716104         0.022727        -0.080045
 H         2.349781         0.132966         2.125283
 H         1.708797        -1.368789         2.077498
 H         4.581450        -1.376320         1.551821
 H         3.546839        -2.338137         0.872032
 H         5.082048        -0.817056        -0.433543
 H         2.292860         1.880579        -0.981150
 H         3.335028        -0.229644        -2.375388
