19
Iteration:  2698charge 0 multiplicity 1
 C         0.165564         0.511164         0.375407
 C         1.617958         0.112018         0.120927
 C         2.160693        -0.550535         1.281463
 C         3.583974        -1.196966         0.937971
 C         4.200414        -0.393232        -0.135251
 O         3.910112         1.046742         0.215315
 C         2.689877         1.020650        -0.575425
 C         3.091683        -0.232673        -1.363647
 O         1.835748        -0.942035        -1.015745
 H         0.261130         1.393370         1.130606
 H        -0.285848         1.033448        -0.495903
 H        -0.539456        -0.284890         0.710003
 H         2.228103         0.071605         2.135672
 H         1.357440        -1.336660         1.586212
 H         4.296577        -1.472199         1.806934
 H         3.452184        -2.161402         0.417078
 H         5.337714        -0.629111        -0.395236
 H         2.553558         1.987844        -1.036698
 H         3.299792        -0.294776        -2.420998
