19
Iteration:  3108charge 0 multiplicity 1
 C         0.252740         0.637913         0.143210
 C         1.641475        -0.057205         0.180367
 C         2.271912        -0.666062         1.434787
 C         3.663399        -1.234781         1.024987
 C         4.114975        -0.444701        -0.249333
 O         3.933814         1.103701         0.163851
 C         2.648027         0.924257        -0.430311
 C         3.014870        -0.195896        -1.278271
 O         1.723153        -0.790057        -1.081872
 H         0.064737         1.410303         0.889307
 H         0.150666         0.786271        -1.042157
 H        -0.562712        -0.232785         0.271387
 H         2.305473         0.271319         2.170607
 H         1.567888        -1.399905         1.919983
 H         4.426542        -1.091864         1.807241
 H         3.579225        -2.379553         0.973650
 H         5.097079        -0.441639        -0.746350
 H         2.244664         2.013683        -0.761774
 H         3.340012        -0.288098        -2.370108
