19
Iteration:  1683charge 0 multiplicity 1
 C         0.147007         0.504273         0.148602
 C         1.623760         0.090959         0.107860
 C         2.281967        -0.511870         1.386003
 C         3.677842        -1.219892         1.023714
 C         4.122014        -0.448580        -0.202777
 O         3.953073         1.000911         0.237450
 C         2.670405         1.051324        -0.494183
 C         3.054746        -0.274210        -1.334101
 O         1.751705        -0.841657        -1.012624
 H        -0.156938         1.494366         0.511112
 H        -0.201176         0.406598        -0.893663
 H        -0.521399        -0.322511         0.569575
 H         2.621250         0.273068         2.117532
 H         1.522311        -1.116550         1.854107
 H         4.183818        -1.231135         2.005545
 H         3.619042        -2.351163         0.832125
 H         5.205194        -0.568442        -0.558525
 H         2.245575         1.934845        -0.920302
 H         3.290356        -0.143229        -2.405359
