19
Iteration:  2646charge 0 multiplicity 1
 C         0.189518         0.564518         0.196237
 C         1.642627         0.045416         0.190269
 C         2.210984        -0.646857         1.399118
 C         3.585166        -1.161038         1.027845
 C         4.170071        -0.368608        -0.246662
 O         3.992099         1.023085         0.170982
 C         2.658962         0.959569        -0.440822
 C         3.018976        -0.145498        -1.367788
 O         1.775516        -0.939409        -1.057806
 H        -0.091967         1.090784         1.170180
 H        -0.077680         1.371808        -0.626113
 H        -0.409994        -0.323829         0.163095
 H         2.353219         0.157504         2.160616
 H         1.586101        -1.482342         1.737369
 H         4.315946        -0.904677         1.740052
 H         3.486806        -2.224203         0.842942
 H         5.173345        -0.621615        -0.641734
 H         2.394897         1.980928        -0.698234
 H         3.288673        -0.130170        -2.430359
