19
Iteration:  2578
 C         0.152984         0.456754         0.363604
 C         1.584064         0.006648         0.119975
 C         2.177600        -0.679279         1.394421
 C         3.463948        -1.311488         0.957418
 C         4.129159        -0.275191        -0.174382
 O         4.006116         1.155329         0.107989
 C         2.730643         1.080233        -0.599968
 C         3.132797        -0.223852        -1.317593
 O         1.877193        -0.863859        -0.993550
 H         0.263666         1.438481         1.040599
 H        -0.304816         0.947949        -0.516616
 H        -0.479587        -0.373050         0.870253
 H         2.346141         0.060086         2.153553
 H         1.426331        -1.464359         1.794567
 H         3.946439        -1.732766         1.834384
 H         3.151239        -2.034147         0.264262
 H         5.250316        -0.549673        -0.438665
 H         2.310866         1.905242        -1.124738
 H         3.524781        -0.274068        -2.304426
