19
Iteration:  3871charge 0 multiplicity 1
 C         0.178350         0.616188         0.253329
 C         1.625061         0.150609         0.127020
 C         2.248428        -0.594498         1.252551
 C         3.657843        -1.234617         0.965117
 C         4.135606        -0.342428        -0.097807
 O         3.896540         0.999798         0.212715
 C         2.733164         0.949077        -0.486996
 C         2.949883        -0.261657        -1.338274
 O         1.786158        -0.923444        -1.054672
 H         0.007492         1.004161         1.258962
 H         0.017954         1.424479        -0.535799
 H        -0.532543        -0.161453         0.032383
 H         2.453859         0.149682         2.068477
 H         1.632484        -1.351274         1.819515
 H         4.279935        -1.297206         1.964831
 H         3.789916        -2.358395         0.700930
 H         5.244500        -0.583097        -0.448120
 H         2.473007         1.956606        -0.797852
 H         3.380657        -0.172187        -2.365618
