19
Iteration:  1899
 C         0.194491         0.599569         0.195333
 C         1.657236         0.092215         0.146561
 C         2.203587        -0.701423         1.384934
 C         3.661496        -1.160880         0.955513
 C         4.105362        -0.387535        -0.230378
 O         3.935099         1.056290         0.213243
 C         2.661701         0.964009        -0.532751
 C         3.028205        -0.247852        -1.322173
 O         1.788792        -0.888461        -0.968343
 H         0.060112         1.398857         0.926498
 H         0.060347         1.183469        -0.782622
 H        -0.692331        -0.042975         0.298502
 H         2.165257        -0.088904         2.289799
 H         1.597685        -1.672348         1.503486
 H         4.292580        -1.010420         1.822606
 H         3.708315        -2.274931         0.949781
 H         5.237534        -0.470399        -0.530766
 H         2.415502         2.040523        -0.904848
 H         3.442116        -0.419171        -2.325157
