19
Iteration:   441charge 0 multiplicity 1
 C         0.239758         0.500247         0.283007
 C         1.651390         0.002392         0.173768
 C         2.158572        -0.522145         1.451042
 C         3.425785        -1.331372         0.998618
 C         4.144000        -0.296216        -0.003093
 O         3.974531         1.188780         0.019702
 C         2.737221         0.955839        -0.646389
 C         3.108498        -0.241313        -1.271281
 O         1.780864        -0.919377        -1.060094
 H         0.206289         1.365551         0.910385
 H        -0.109650         0.876858        -0.830913
 H        -0.383147        -0.447340         0.431301
 H         2.593535         0.301506         2.038869
 H         1.441167        -1.136901         2.052774
 H         4.193207        -1.682511         1.747442
 H         3.111570        -2.230140         0.376592
 H         5.238219        -0.573193        -0.206189
 H         2.378620         1.898534        -1.086974
 H         3.675530        -0.260534        -2.288467
