19
Iteration:  3693charge 0 multiplicity 1
 C         0.155845         0.570147         0.232730
 C         1.607049         0.078809         0.142305
 C         2.177242        -0.700391         1.429629
 C         3.619574        -1.235876         1.017086
 C         4.131549        -0.387475        -0.200193
 O         4.000944         1.078429         0.172329
 C         2.752211         1.070192        -0.512030
 C         3.047372        -0.277237        -1.324036
 O         1.762284        -0.816335        -1.082977
 H        -0.027779         0.913681         1.267441
 H        -0.142832         1.223922        -0.517239
 H        -0.375238        -0.372812         0.088744
 H         2.509304        -0.042852         2.154073
 H         1.577675        -1.529361         1.886077
 H         4.343496        -1.380440         1.831862
 H         3.327719        -2.183573         0.484334
 H         5.140037        -0.623602        -0.511623
 H         2.312529         2.033879        -0.846663
 H         3.250842        -0.415579        -2.366257
