19
Iteration:  3747charge 0 multiplicity 1
 C         0.193180         0.605830         0.266012
 C         1.602323        -0.006732         0.132426
 C         2.174736        -0.621233         1.380091
 C         3.587187        -1.214994         0.914782
 C         4.079324        -0.373324        -0.240919
 O         3.951362         0.992923         0.270134
 C         2.705836         1.022627        -0.466622
 C         3.100836        -0.193255        -1.384715
 O         1.817445        -0.911343        -1.047001
 H         0.390468         1.579953         0.805518
 H        -0.001960         1.010940        -0.706060
 H        -0.706562         0.032794         0.658380
 H         2.474140         0.027962         2.122401
 H         1.435940        -1.352063         1.780196
 H         4.307036        -0.981332         1.717679
 H         3.648830        -2.337904         0.785335
 H         5.144662        -0.488395        -0.402537
 H         2.395050         2.069897        -0.770601
 H         3.304640        -0.273750        -2.445377
