19
Iteration:  1030
 C         0.183970         0.616631         0.271316
 C         1.581084         0.001423         0.101941
 C         2.259538        -0.667609         1.304540
 C         3.691498        -1.189036         1.111875
 C         4.233475        -0.349183        -0.060678
 O         3.910350         1.096981         0.125597
 C         2.705737         0.951792        -0.598981
 C         2.999260        -0.311232        -1.298482
 O         1.672477        -0.850081        -1.103498
 H         0.140003         1.023244         1.215509
 H        -0.086972         1.360116        -0.571924
 H        -0.560858        -0.214408         0.065715
 H         2.543502         0.177716         2.031300
 H         1.661465        -1.401346         1.864084
 H         4.434914        -1.155569         2.015237
 H         3.664277        -2.242188         0.910490
 H         5.272528        -0.397767        -0.271977
 H         2.264783         1.894164        -0.992426
 H         3.494777        -0.400396        -2.276379
