19
Iteration:  4596
 C         0.169923         0.622748         0.205340
 C         1.587588         0.025044         0.143042
 C         2.259269        -0.604915         1.392420
 C         3.633886        -1.262836         0.981558
 C         4.041544        -0.314958        -0.126608
 O         3.997182         1.032749         0.158957
 C         2.693269         1.025868        -0.548013
 C         3.052199        -0.269465        -1.275213
 O         1.776349        -0.921330        -1.035667
 H        -0.071472         1.042685         1.168822
 H         0.070722         1.443052        -0.509576
 H        -0.428394        -0.178266        -0.029559
 H         2.590466         0.212161         2.044168
 H         1.621685        -1.245957         1.919789
 H         4.446036        -1.173676         1.731996
 H         3.602947        -2.310769         0.583653
 H         4.971344        -0.421828        -0.592305
 H         2.155878         1.846337        -1.005531
 H         3.426485        -0.429887        -2.224959
