19
Iteration:   147
 C         0.125919         0.462264         0.047140
 C         1.646157         0.080028         0.185835
 C         2.132866        -0.559050         1.449338
 C         3.593244        -1.172262         1.092169
 C         4.164922        -0.393429        -0.169755
 O         4.133460         1.110155         0.031992
 C         2.733608         0.978708        -0.508320
 C         3.001791        -0.281651        -1.269828
 O         1.707990        -0.869644        -0.940670
 H        -0.224451         1.207436         0.786146
 H        -0.096148         0.952998        -0.940154
 H        -0.480237        -0.463839         0.117993
 H         2.282049         0.173699         2.217284
 H         1.485452        -1.351003         1.816087
 H         4.415504        -1.157806         1.919494
 H         3.539020        -2.221851         0.838130
 H         5.215383        -0.727837        -0.465272
 H         2.307989         1.807362        -0.971861
 H         3.329803        -0.210859        -2.367987
