19
Iteration:  4946charge 0 multiplicity 1
 C         0.196901         0.555616         0.288922
 C         1.674283         0.047583         0.193312
 C         2.106000        -0.692373         1.411882
 C         3.532618        -1.244649         0.943646
 C         4.116749        -0.338311        -0.186067
 O         3.994795         1.182148         0.073610
 C         2.714761         1.038719        -0.559001
 C         3.045058        -0.240793        -1.329167
 O         1.874940        -0.934217        -0.936441
 H         0.037088         1.269315         1.148869
 H        -0.010488         1.188354        -0.684510
 H        -0.362729        -0.417454         0.321288
 H         2.066032        -0.086083         2.310891
 H         1.387793        -1.599937         1.580621
 H         4.311186        -1.436959         1.678282
 H         3.118820        -2.088406         0.423658
 H         5.176788        -0.629009        -0.314875
 H         2.380625         1.890547        -1.104803
 H         3.364904        -0.333116        -2.385994
