19
Iteration:  3374
 C         0.150503         0.553346         0.206556
 C         1.650128         0.074142         0.123097
 C         2.248169        -0.635836         1.328147
 C         3.580392        -1.201047         0.952987
 C         4.110398        -0.380920        -0.267972
 O         3.929712         1.002432         0.264003
 C         2.729074         1.116597        -0.418998
 C         3.037585        -0.293080        -1.344680
 O         1.797422        -0.934911        -1.000966
 H         0.075085         1.353415         0.916593
 H         0.099280         1.171092        -0.680259
 H        -0.555738        -0.318578         0.255103
 H         2.430203         0.209624         2.082941
 H         1.540119        -1.358561         1.759793
 H         4.315685        -0.941323         1.771536
 H         3.500353        -2.325472         0.982615
 H         5.130737        -0.380942        -0.694135
 H         2.539401         2.175992        -0.814234
 H         3.229977        -0.244191        -2.407266
