19
Iteration:  3037
 C         0.183485         0.532323         0.311401
 C         1.624199         0.032285         0.138134
 C         2.189175        -0.650224         1.372298
 C         3.508696        -1.281418         1.002340
 C         4.164997        -0.362329        -0.102445
 O         4.043375         1.164467         0.137069
 C         2.732744         1.054235        -0.547969
 C         3.038847        -0.265901        -1.372202
 O         1.759393        -0.865214        -1.105459
 H        -0.092990         1.133354         1.240294
 H        -0.048058         0.871429        -0.660453
 H        -0.331168        -0.373941         0.641420
 H         2.420003         0.145393         2.040289
 H         1.466611        -1.291975         2.015733
 H         4.196596        -1.481452         1.877259
 H         3.317050        -2.278571         0.596270
 H         5.226465        -0.570927        -0.298000
 H         2.354240         1.961746        -0.869020
 H         3.359662        -0.376233        -2.387956
