19
Iteration:  1180
 C         0.195507         0.600931         0.232724
 C         1.687819         0.040536         0.193214
 C         2.156570        -0.740030         1.314543
 C         3.585253        -1.238323         1.028102
 C         4.132955        -0.370188        -0.068939
 O         3.984589         1.212172        -0.018724
 C         2.654531         0.976864        -0.562721
 C         3.075599        -0.296652        -1.211325
 O         1.770709        -0.860255        -0.971096
 H         0.180361         1.378216         0.987717
 H         0.157689         1.138270        -0.739064
 H        -0.521558        -0.135472         0.481272
 H         2.049323        -0.229618         2.225401
 H         1.626167        -1.626890         1.508189
 H         4.223370        -1.251093         1.924767
 H         3.556721        -2.126170         0.455195
 H         5.147599        -0.664304        -0.398729
 H         2.204063         1.838702        -1.210340
 H         3.448941        -0.395970        -2.176494
