19
Iteration:  3728
 C         0.209018         0.673701         0.197561
 C         1.619434         0.118533         0.141010
 C         2.168207        -0.751135         1.353525
 C         3.583884        -1.224238         0.908441
 C         4.162598        -0.407847        -0.197088
 O         3.980356         1.087184         0.166838
 C         2.669793         1.042035        -0.503023
 C         3.009919        -0.201816        -1.280688
 O         1.872423        -0.948862        -0.933553
 H         0.014974         1.295613         1.079961
 H        -0.225246         1.140328        -0.693009
 H        -0.397120        -0.165678         0.372285
 H         2.031665        -0.107970         2.256458
 H         1.513594        -1.655242         1.586593
 H         4.215154        -1.527607         1.779793
 H         3.315328        -2.255515         0.524350
 H         5.209701        -0.522093        -0.609285
 H         2.406232         2.043587        -0.778388
 H         3.220158        -0.219244        -2.357620
