19
Iteration:  1992
 C         0.185876         0.509909         0.171243
 C         1.581356         0.036952         0.159073
 C         2.281496        -0.590134         1.399985
 C         3.617420        -1.245215         0.970655
 C         4.110833        -0.344715        -0.163672
 O         3.949172         1.080255         0.198135
 C         2.718842         1.021385        -0.528241
 C         3.029013        -0.261421        -1.277287
 O         1.761938        -0.856384        -1.036698
 H         0.088685         1.247523         0.953306
 H        -0.105933         0.962263        -0.787263
 H        -0.408053        -0.348415         0.478163
 H         2.751365         0.240100         1.935290
 H         1.673398        -1.103052         2.075272
 H         4.315636        -1.604021         1.760772
 H         3.390102        -2.176979         0.427034
 H         5.150163        -0.537945        -0.436920
 H         2.124200         1.763010        -1.076691
 H         3.358382        -0.314861        -2.362144
