19
Iteration:  2869
 C         0.232796         0.546672         0.160088
 C         1.628415         0.070855         0.138936
 C         2.160866        -0.704666         1.401359
 C         3.548224        -1.279269         0.972271
 C         4.178561        -0.322155        -0.177651
 O         4.058531         1.130400         0.112698
 C         2.723513         1.082178        -0.497085
 C         2.999835        -0.143066        -1.323632
 O         1.766771        -0.984494        -0.902921
 H        -0.172565         1.320881         0.883674
 H        -0.240996         0.943707        -0.914126
 H        -0.376292        -0.428114         0.450880
 H         2.205211        -0.046461         2.333402
 H         1.396719        -1.398237         1.618947
 H         4.172564        -1.553060         1.782234
 H         3.364313        -2.217602         0.442691
 H         5.146840        -0.627038        -0.549418
 H         2.408081         2.119187        -0.774163
 H         3.248567        -0.223151        -2.389796
