19
Iteration:  3369charge 0 multiplicity 1
 C         0.162645         0.538858         0.167624
 C         1.609880         0.055700         0.153602
 C         2.231796        -0.620236         1.366532
 C         3.556098        -1.219148         0.953441
 C         4.117978        -0.392306        -0.297222
 O         3.978358         1.001495         0.248067
 C         2.707179         1.101342        -0.457562
 C         3.018720        -0.208281        -1.301859
 O         1.844567        -0.921295        -0.965695
 H         0.137168         1.192510         1.103062
 H         0.008089         1.078871        -0.816778
 H        -0.672510        -0.172505         0.178221
 H         2.457219         0.108519         2.132685
 H         1.508944        -1.370543         1.698077
 H         4.173098        -0.846077         1.748185
 H         3.605213        -2.288175         0.757597
 H         5.100432        -0.632159        -0.734460
 H         2.465038         2.090269        -0.871702
 H         3.216761        -0.291742        -2.393690
