19
Iteration:  4072
 C         0.150412         0.526873         0.185716
 C         1.562264         0.017779         0.131942
 C         2.274660        -0.559814         1.386826
 C         3.557514        -1.296533         0.953085
 C         4.093350        -0.373113        -0.135552
 O         4.026191         1.044956         0.087208
 C         2.635959         1.055989        -0.481087
 C         3.032271        -0.225733        -1.207016
 O         1.824409        -0.869192        -1.020192
 H        -0.059916         1.247015         0.972833
 H         0.050381         1.223594        -0.615955
 H        -0.534222        -0.294505         0.104593
 H         2.659567         0.051761         2.273433
 H         1.593862        -1.218381         1.910760
 H         4.408633        -1.326367         1.709418
 H         3.535450        -2.269760         0.410916
 H         5.131643        -0.613035        -0.349352
 H         2.524941         2.122107        -0.876118
 H         3.415993        -0.253889        -2.292270
