19
Iteration:   805
 C         0.185622         0.507278         0.263073
 C         1.636690         0.051927         0.115316
 C         2.214750        -0.647399         1.358076
 C         3.530265        -1.302655         1.001016
 C         4.219386        -0.270649        -0.030082
 O         3.976045         1.140673         0.070413
 C         2.680925         1.011903        -0.593802
 C         3.071267        -0.322965        -1.288607
 O         1.762831        -0.817749        -0.998900
 H         0.260336         1.251709         1.090600
 H        -0.021032         0.968273        -0.602706
 H        -0.538087        -0.211020         0.468993
 H         2.366796         0.016754         2.160950
 H         1.510922        -1.414473         1.805443
 H         4.149069        -1.539429         1.833572
 H         3.241610        -2.029313         0.320961
 H         5.225062        -0.633168        -0.370692
 H         2.209025         1.835632        -1.080308
 H         3.325864        -0.506148        -2.343599
