19
Iteration:  4772
 C         0.097477         0.489413         0.332405
 C         1.654090         0.132483         0.171153
 C         2.133148        -0.591468         1.310177
 C         3.550884        -1.137072         1.004321
 C         4.119873        -0.409852        -0.205285
 O         4.105912         1.066438         0.077399
 C         2.682071         0.991282        -0.530972
 C         3.073590        -0.226775        -1.286041
 O         1.831778        -0.941996        -0.983686
 H        -0.187426         0.697669         1.351640
 H        -0.156453         1.355089        -0.342926
 H        -0.471285        -0.280113        -0.103077
 H         2.141976         0.175520         2.124775
 H         1.356215        -1.403602         1.527482
 H         4.273874        -1.052225         1.838101
 H         3.593788        -2.225244         0.602311
 H         5.189732        -0.650101        -0.422307
 H         2.196834         1.992870        -0.954163
 H         3.350614        -0.348794        -2.342659
