19
Iteration:   158charge 0 multiplicity 1
 C         0.141184         0.450613         0.122394
 C         1.579935         0.143474         0.181593
 C         2.147985        -0.553105         1.387892
 C         3.491125        -1.101995         0.974279
 C         4.147401        -0.404187        -0.207916
 O         4.125012         1.051963         0.049042
 C         2.703266         1.032630        -0.523890
 C         3.088034        -0.271153        -1.256612
 O         1.833940        -0.929382        -0.834811
 H        -0.246807         1.154301         0.865792
 H        -0.063922         0.778800        -0.924486
 H        -0.408815        -0.496558         0.255257
 H         2.158388         0.107340         2.235939
 H         1.392984        -1.312322         1.587761
 H         4.063254        -1.130168         1.968926
 H         3.308863        -2.095907         0.609999
 H         5.154964        -0.848045        -0.483164
 H         2.426646         1.946595        -0.965542
 H         3.310248        -0.388596        -2.378046
