19
Iteration:  2191charge 0 multiplicity 1
 C         0.182178         0.530767         0.369271
 C         1.631410         0.061463         0.099492
 C         2.146453        -0.640199         1.305422
 C         3.577613        -1.138328         0.979801
 C         4.124448        -0.360531        -0.192586
 O         3.975415         1.068960         0.117604
 C         2.703608         1.035938        -0.528006
 C         3.126763        -0.245792        -1.292775
 O         1.795280        -0.908616        -0.982897
 H         0.158440         1.203132         1.133402
 H        -0.426540         0.725033        -0.558947
 H        -0.317308        -0.299394         0.777553
 H         2.195254        -0.031409         2.187670
 H         1.407890        -1.459909         1.367080
 H         4.253826        -1.176883         1.852324
 H         3.649901        -2.159103         0.492778
 H         5.133666        -0.756096        -0.478019
 H         2.506243         2.035098        -1.060430
 H         3.216421        -0.333387        -2.427929
