19
Iteration:  1521
 C         0.143757         0.546326         0.148812
 C         1.595690         0.055981         0.107644
 C         2.254277        -0.489794         1.353429
 C         3.583725        -1.247819         0.992211
 C         4.125119        -0.416636        -0.199760
 O         3.906057         1.021860         0.263653
 C         2.739210         1.098533        -0.592165
 C         3.006178        -0.259713        -1.342136
 O         1.867071        -0.955861        -0.922779
 H         0.250616         1.424710         0.851800
 H        -0.361897         0.819233        -0.792527
 H        -0.542418        -0.208836         0.689849
 H         2.629867         0.232936         2.170686
 H         1.426570        -1.190095         1.716924
 H         4.387398        -1.379093         1.820805
 H         3.470528        -2.306643         0.670589
 H         5.166321        -0.468015        -0.526918
 H         2.455879         2.159802        -0.942570
 H         3.386765        -0.358403        -2.397565
