19
Iteration:  2998charge 0 multiplicity 1
 C         0.143011         0.559691         0.173388
 C         1.629914         0.133402         0.200316
 C         2.241922        -0.605765         1.410995
 C         3.646406        -1.167888         0.989171
 C         4.153979        -0.418904        -0.300979
 O         3.948747         0.943060         0.306355
 C         2.713716         1.053652        -0.517058
 C         2.968877        -0.186722        -1.433121
 O         1.814889        -0.940098        -0.997621
 H        -0.190154         1.183074         0.973997
 H        -0.180864         1.161545        -0.695176
 H        -0.496773        -0.290989         0.006907
 H         2.372405         0.173661         2.211516
 H         1.573857        -1.389398         1.703375
 H         4.318504        -0.910845         1.804515
 H         3.624359        -2.272593         0.830358
 H         5.204290        -0.658154        -0.597546
 H         2.448430         2.185256        -0.595924
 H         3.151997        -0.415641        -2.522330
