19
Iteration:   443charge 0 multiplicity 1
 C         0.232352         0.473579         0.264367
 C         1.665235        -0.007015         0.161221
 C         2.159914        -0.502687         1.488475
 C         3.384524        -1.344975         0.978186
 C         4.133635        -0.293593        -0.017854
 O         3.989030         1.189971         0.023939
 C         2.734286         0.963166        -0.632709
 C         3.114296        -0.254915        -1.285858
 O         1.797441        -0.912673        -1.049766
 H         0.156114         1.436524         0.926596
 H        -0.153301         0.880282        -0.735324
 H        -0.385025        -0.393369         0.436539
 H         2.590697         0.304648         2.017205
 H         1.507244        -1.168383         2.168468
 H         4.166701        -1.621474         1.717613
 H         3.153666        -2.154093         0.377655
 H         5.253998        -0.573581        -0.229843
 H         2.376096         1.927703        -1.083209
 H         3.674237        -0.248113        -2.326450
