19
Iteration:  2023charge 0 multiplicity 1
 C         0.219555         0.557857         0.187651
 C         1.613368         0.039487         0.175050
 C         2.118092        -0.694163         1.351960
 C         3.562993        -1.164112         0.945222
 C         4.104897        -0.355869        -0.239811
 O         3.997681         1.116018         0.110958
 C         2.716623         1.101984        -0.488657
 C         3.013600        -0.227400        -1.300483
 O         1.903602        -0.977122        -0.898772
 H         0.149807         1.390962         0.933613
 H        -0.221109         0.811824        -0.708674
 H        -0.405386        -0.177196         0.734905
 H         2.257702        -0.072380         2.259108
 H         1.509062        -1.510972         1.592943
 H         4.238859        -1.394807         1.768844
 H         3.336522        -2.113013         0.515111
 H         5.066241        -0.751753        -0.504034
 H         2.191297         2.083141        -0.895883
 H         3.290021        -0.350661        -2.333252
