19
Iteration:  1955charge 0 multiplicity 1
 C         0.171127         0.506682         0.324957
 C         1.638599         0.133399         0.066178
 C         2.149033        -0.593797         1.391481
 C         3.557393        -1.129951         1.004035
 C         4.141777        -0.452456        -0.211212
 O         3.956377         0.979998         0.187019
 C         2.700604         0.982476        -0.590482
 C         3.036687        -0.173704        -1.355993
 O         1.890024        -0.880286        -1.004186
 H        -0.038817         0.914610         1.363212
 H        -0.326501         1.132133        -0.396062
 H        -0.366714        -0.494008         0.361484
 H         2.193304         0.255906         2.097078
 H         1.535191        -1.435167         1.823440
 H         4.183307        -1.015916         1.875355
 H         3.517217        -2.200854         0.714181
 H         5.193654        -0.604699        -0.620797
 H         2.499541         2.083971        -1.003919
 H         3.344764        -0.275939        -2.361910
