19
Iteration:  2049
 C         0.203393         0.600582         0.258032
 C         1.595692         0.051201         0.152817
 C         2.211960        -0.668499         1.323584
 C         3.689522        -1.127825         1.037393
 C         4.200369        -0.400799        -0.219996
 O         3.910753         1.036978         0.192797
 C         2.683640         1.039977        -0.529281
 C         3.048697        -0.245112        -1.337917
 O         1.738432        -0.900138        -1.042565
 H         0.068719         1.385197         0.961549
 H        -0.307196         0.778324        -0.806533
 H        -0.467385        -0.177645         0.598420
 H         2.324270        -0.123806         2.246539
 H         1.607880        -1.581570         1.580607
 H         4.301280        -0.811780         1.945265
 H         3.672205        -2.281398         1.008563
 H         5.277265        -0.695020        -0.428766
 H         2.192197         1.929208        -0.947709
 H         3.359528        -0.375300        -2.451739
