19
Iteration:  4156
 C         0.236903         0.571848         0.285700
 C         1.606825         0.058131         0.074815
 C         2.257589        -0.658518         1.401561
 C         3.584584        -1.110893         1.085065
 C         4.155043        -0.374028        -0.145765
 O         3.935029         0.981735         0.149268
 C         2.677835         0.948364        -0.511917
 C         3.050190        -0.272950        -1.336990
 O         1.738633        -0.806313        -1.148273
 H         0.182000         1.449038         0.948298
 H        -0.186119         0.685752        -0.741923
 H        -0.389431        -0.244587         0.820784
 H         2.276723         0.127773         2.179697
 H         1.665732        -1.509487         1.768256
 H         4.374970        -1.154562         1.878230
 H         3.475847        -2.094522         0.716721
 H         5.221824        -0.662243        -0.272056
 H         2.382545         1.904157        -0.912091
 H         3.402389        -0.024040        -2.310779
