19
Iteration:  1610charge 0 multiplicity 1
 C         0.188445         0.622525         0.268695
 C         1.576737         0.031504         0.054245
 C         2.215108        -0.626916         1.327216
 C         3.727010        -1.143433         1.085658
 C         4.140629        -0.358475        -0.134774
 O         3.902126         1.038795         0.226514
 C         2.712950         0.948054        -0.639921
 C         3.083903        -0.262066        -1.331021
 O         1.742401        -0.921619        -1.056162
 H         0.051809         1.158462         1.257242
 H        -0.083292         1.387637        -0.400184
 H        -0.548726        -0.246760         0.167568
 H         2.250771         0.244279         2.086667
 H         1.444857        -1.365105         1.668407
 H         4.354803        -1.059533         2.061039
 H         3.466757        -2.158740         0.907218
 H         5.135955        -0.606608        -0.420702
 H         2.429747         2.003990        -0.932927
 H         3.462877        -0.542513        -2.357653
