19
Iteration:  2918charge 0 multiplicity 1
 C         0.238853         0.515625         0.276561
 C         1.609434         0.116328         0.063988
 C         2.243103        -0.520398         1.290439
 C         3.645321        -1.215407         1.006851
 C         4.112504        -0.368229        -0.185057
 O         3.858474         0.942471         0.261746
 C         2.736881         1.077716        -0.503113
 C         2.979558        -0.258536        -1.337565
 O         1.825237        -0.924977        -1.098842
 H         0.295045         1.448558         0.980634
 H        -0.283136         0.891940        -0.544608
 H        -0.353746        -0.178062         0.883981
 H         2.202308         0.223650         2.073067
 H         1.466403        -1.338996         1.689418
 H         4.413396        -1.041496         1.901612
 H         3.559200        -2.333347         0.848756
 H         5.225656        -0.572068        -0.420688
 H         2.472474         2.121183        -0.658937
 H         3.288891        -0.443429        -2.383938
