19
Iteration:  3467
 C         0.159572         0.541484         0.085207
 C         1.594397         0.123360         0.158639
 C         2.343484        -0.669854         1.434618
 C         3.671978        -1.279273         1.025035
 C         4.114771        -0.346590        -0.224897
 O         3.957124         1.016430         0.248863
 C         2.661034         1.048329        -0.509310
 C         2.957675        -0.264705        -1.305486
 O         1.751629        -0.838343        -1.061471
 H         0.112016         1.369675         0.816172
 H        -0.147752         1.130270        -0.783039
 H        -0.431501        -0.290867         0.347529
 H         2.607505         0.077880         2.129050
 H         1.757685        -1.441576         1.922920
 H         4.306277        -1.173310         1.892649
 H         3.609494        -2.277304         0.715396
 H         5.141351        -0.534945        -0.575254
 H         2.414516         1.987285        -0.761706
 H         3.267040        -0.302468        -2.339220
