19
Iteration:   494
 C         0.124653         0.506411         0.083696
 C         1.611655         0.106164         0.138773
 C         2.242323        -0.584976         1.364949
 C         3.698295        -1.100967         1.080910
 C         4.170658        -0.466917        -0.230259
 O         3.962173         1.017465         0.258520
 C         2.713649         0.998445        -0.541268
 C         2.980640        -0.307976        -1.316001
 O         1.713019        -0.825440        -0.989591
 H        -0.104543         1.219424         0.774975
 H        -0.274332         1.040954        -0.870669
 H        -0.455536        -0.474838         0.220138
 H         2.534949         0.189692         2.137160
 H         1.628479        -1.319117         1.846860
 H         4.535620        -0.753888         1.721546
 H         3.726764        -2.284048         1.025923
 H         5.184420        -0.678654        -0.566760
 H         2.565750         2.004251        -0.930082
 H         3.363499        -0.589766        -2.299726
