19
Iteration:  2349
 C         0.220499         0.568050         0.278992
 C         1.604608         0.018649         0.138773
 C         2.237074        -0.680723         1.346697
 C         3.640265        -1.152916         0.979618
 C         4.109081        -0.379622        -0.189825
 O         3.903533         1.040533         0.269148
 C         2.699349         1.037995        -0.528237
 C         3.012739        -0.246144        -1.402496
 O         1.792488        -0.888596        -1.102347
 H         0.301604         1.197026         1.223344
 H         0.008229         1.148712        -0.562881
 H        -0.610133        -0.121655         0.478673
 H         2.530798         0.181787         2.043014
 H         1.634555        -1.416028         2.008433
 H         4.369679        -0.927691         1.822563
 H         3.646776        -2.366025         0.920111
 H         5.206265        -0.384660        -0.372910
 H         2.312828         1.908757        -0.963833
 H         3.191420        -0.409907        -2.425126
