19
Iteration:  4262charge 0 multiplicity 1
 C         0.086057         0.535254         0.298161
 C         1.554091         0.114536         0.161033
 C         2.172567        -0.577034         1.380774
 C         3.491598        -1.167619         0.910749
 C         4.179997        -0.378891        -0.209730
 O         3.980099         1.009347         0.167704
 C         2.801435         1.014398        -0.537757
 C         3.093215        -0.289872        -1.345532
 O         1.866669        -0.860838        -0.995160
 H        -0.037177         1.150512         1.141288
 H        -0.412632         0.997738        -0.583267
 H        -0.410260        -0.425032         0.407355
 H         2.294158         0.056396         2.223725
 H         1.495794        -1.427456         1.750309
 H         4.175602        -1.048873         1.744229
 H         3.461280        -2.302516         0.691417
 H         5.223554        -0.585945        -0.434330
 H         2.532382         1.950946        -1.014031
 H         3.600153        -0.519627        -2.253709
