19
Iteration:  3735
 C         0.184927         0.693375         0.203955
 C         1.609914         0.071730         0.140059
 C         2.154099        -0.693445         1.395498
 C         3.574696        -1.265417         0.911755
 C         4.143321        -0.339778        -0.232536
 O         3.974803         1.046261         0.208390
 C         2.707419         1.016677        -0.480640
 C         3.002989        -0.201678        -1.346442
 O         1.892595        -0.943952        -0.963815
 H         0.118948         1.365611         1.115043
 H        -0.237579         1.073331        -0.708224
 H        -0.527362        -0.170141         0.532308
 H         2.050910        -0.073482         2.248049
 H         1.501990        -1.531716         1.607437
 H         4.324923        -1.228046         1.711479
 H         3.554805        -2.285770         0.490904
 H         5.102036        -0.619028        -0.596134
 H         2.313384         2.050139        -0.747029
 H         3.412354        -0.367144        -2.337187
