19
Iteration:  1768charge 0 multiplicity 1
 C         0.245774         0.610634         0.182764
 C         1.641458         0.002725         0.129283
 C         2.234727        -0.614926         1.398079
 C         3.704210        -1.203322         1.020011
 C         4.134622        -0.361196        -0.127630
 O         3.913385         1.077466         0.127363
 C         2.660311         0.945409        -0.556682
 C         3.036869        -0.269859        -1.239099
 O         1.700450        -0.884126        -1.053182
 H         0.030847         1.088109         1.112640
 H         0.232814         1.399676        -0.643307
 H        -0.497537        -0.160101        -0.023370
 H         2.411895         0.013627         2.214362
 H         1.618911        -1.472561         1.694491
 H         4.086179        -1.046450         2.012754
 H         3.692682        -2.266671         0.641569
 H         5.257166        -0.422168        -0.345214
 H         2.179764         2.011720        -0.905368
 H         3.282875        -0.326854        -2.300043
