19
Iteration:  1108charge 0 multiplicity 1
 C         0.136997         0.502823         0.217214
 C         1.585819         0.030651         0.141109
 C         2.253194        -0.592311         1.387203
 C         3.621426        -1.205527         1.081373
 C         4.121582        -0.350304        -0.117529
 O         4.011909         1.064728         0.144060
 C         2.760594         1.037715        -0.606275
 C         2.996130        -0.289848        -1.322467
 O         1.745634        -0.830270        -1.039494
 H        -0.031896         1.430704         0.773538
 H        -0.151552         0.632319        -0.855951
 H        -0.528618        -0.338719         0.636258
 H         2.477497         0.032864         2.261837
 H         1.612606        -1.361315         1.885759
 H         4.401384        -1.308273         1.838261
 H         3.431278        -2.108505         0.503139
 H         5.115492        -0.594780        -0.399342
 H         2.482008         1.969832        -0.998082
 H         3.377710        -0.471290        -2.358240
