19
Iteration:  4755charge 0 multiplicity 1
 C         0.207260         0.487654         0.252535
 C         1.570770         0.071315         0.178765
 C         2.155039        -0.658904         1.430441
 C         3.488910        -1.190125         0.965578
 C         4.204930        -0.313359        -0.096948
 O         4.026392         1.110363         0.001276
 C         2.807874         1.072210        -0.574938
 C         3.034741        -0.270718        -1.313588
 O         1.787461        -0.896961        -0.952636
 H         0.025248         0.792835         1.313089
 H        -0.209016         1.264239        -0.378318
 H        -0.350147        -0.482007        -0.005627
 H         2.124142        -0.072751         2.349702
 H         1.481335        -1.506095         1.571303
 H         4.168163        -1.269213         1.839364
 H         3.249854        -2.142908         0.511773
 H         5.134171        -0.782603        -0.454695
 H         2.443991         2.028540        -0.891893
 H         3.298445        -0.386020        -2.409255
