19
Iteration:  3839
 C         0.223826         0.548834         0.136326
 C         1.615447         0.019205         0.164596
 C         2.224865        -0.633839         1.433875
 C         3.614840        -1.235340         0.951927
 C         4.059538        -0.405528        -0.174301
 O         3.962251         1.072339         0.194176
 C         2.720748         0.956897        -0.465346
 C         2.982684        -0.213460        -1.342110
 O         1.787504        -0.835792        -1.006010
 H         0.135042         1.192334         0.998299
 H         0.244010         1.332570        -0.667797
 H        -0.585123        -0.158063         0.015328
 H         2.337531         0.272434         2.152295
 H         1.597288        -1.419025         1.967337
 H         4.498507        -1.182471         1.779128
 H         3.609885        -2.319761         0.532186
 H         5.105605        -0.573694        -0.659587
 H         2.402714         1.905471        -0.881332
 H         3.366753        -0.051043        -2.374134
