19
Iteration:  3937charge 0 multiplicity 1
 C         0.116700         0.519925         0.148367
 C         1.593068         0.055959         0.122609
 C         2.297896        -0.562527         1.311307
 C         3.634366        -1.218373         0.945787
 C         4.095822        -0.428810        -0.185920
 O         3.949325         1.007449         0.255686
 C         2.765827         1.010412        -0.446846
 C         3.058352        -0.255197        -1.272469
 O         1.742727        -0.812794        -1.031231
 H         0.243734         1.439086         0.722987
 H        -0.365444         0.852196        -0.784078
 H        -0.466560        -0.175057         0.745999
 H         2.467041         0.164862         2.075067
 H         1.518673        -1.176410         1.748722
 H         4.414513        -1.285383         1.700687
 H         3.522620        -2.276652         0.717964
 H         5.126747        -0.473846        -0.625206
 H         2.443690         1.995756        -0.720494
 H         3.292212        -0.409178        -2.317228
