19
Iteration:  1561
 C         0.153789         0.435952         0.144434
 C         1.622720         0.092832         0.143583
 C         2.178609        -0.608623         1.516879
 C         3.538297        -1.251116         1.047726
 C         4.155703        -0.349867        -0.104428
 O         4.062991         1.113552         0.010149
 C         2.759782         1.038962        -0.520488
 C         2.989359        -0.209826        -1.297050
 O         1.801195        -0.893224        -1.027437
 H        -0.021903         1.178022         0.880216
 H        -0.114476         1.123448        -0.721552
 H        -0.487873        -0.418961         0.233595
 H         2.210001         0.253137         2.155791
 H         1.516563        -1.389090         1.922898
 H         4.219016        -1.461802         1.822999
 H         3.194711        -2.254376         0.607682
 H         5.197780        -0.721311        -0.322132
 H         2.478399         1.985329        -0.826909
 H         3.224217        -0.367389        -2.318899
