19
Iteration:  4076charge 0 multiplicity 1
 C         0.177363         0.524058         0.170375
 C         1.562965         0.019081         0.140023
 C         2.272861        -0.575518         1.391329
 C         3.551145        -1.290232         0.922767
 C         4.079678        -0.365946        -0.127811
 O         4.038428         1.083709         0.111660
 C         2.671874         1.065639        -0.520200
 C         2.997859        -0.220676        -1.224647
 O         1.822914        -0.878382        -0.973440
 H         0.031706         1.243807         1.031391
 H        -0.075979         1.189175        -0.750625
 H        -0.514466        -0.332899         0.135615
 H         2.628118        -0.030959         2.238653
 H         1.516021        -1.295222         1.919254
 H         4.285044        -1.450729         1.694863
 H         3.588735        -2.270173         0.324613
 H         5.127007        -0.734516        -0.312643
 H         2.459268         2.058059        -0.941113
 H         3.423185        -0.307841        -2.243940
