19
Iteration:  2259
 C         0.180681         0.582969         0.211629
 C         1.613501         0.075900         0.144808
 C         2.225248        -0.588632         1.417188
 C         3.611249        -1.196035         0.912637
 C         4.085345        -0.324024        -0.309559
 O         3.945710         0.985772         0.242512
 C         2.691656         1.043017        -0.426068
 C         2.987161        -0.177434        -1.409372
 O         1.851419        -1.039739        -0.968605
 H         0.044777         1.306941         0.938027
 H        -0.031769         0.996012        -0.755245
 H        -0.544543        -0.239457         0.342955
 H         2.356859         0.328606         1.974392
 H         1.562346        -1.315828         2.026664
 H         4.487558        -1.011216         1.581933
 H         3.505194        -2.358608         0.878126
 H         5.174049        -0.500754        -0.484056
 H         2.547324         2.105741        -0.622080
 H         3.419791        -0.217371        -2.429248
