19
Iteration:  4183charge 0 multiplicity 1
 C         0.159042         0.533050         0.235686
 C         1.579729         0.208757         0.117759
 C         2.161630        -0.675895         1.273368
 C         3.534117        -1.246329         0.959595
 C         4.168130        -0.346814        -0.201069
 O         4.040830         1.103044         0.185273
 C         2.743993         1.099885        -0.586853
 C         2.951646        -0.349087        -1.284622
 O         1.859696        -0.957022        -0.898389
 H         0.112229         1.143508         1.184441
 H        -0.116001         1.102761        -0.657408
 H        -0.417363        -0.332635         0.494233
 H         2.362577        -0.041975         2.178382
 H         1.375197        -1.415795         1.563883
 H         4.266884        -1.063903         1.753452
 H         3.514957        -2.356803         0.596224
 H         5.203989        -0.629852        -0.418231
 H         2.317429         2.176256        -0.762891
 H         3.410967        -0.371787        -2.360125
