19
Iteration:  4876charge 0 multiplicity 1
 C         0.218584         0.496409         0.261951
 C         1.603129         0.035223         0.128437
 C         2.239680        -0.632487         1.329528
 C         3.623741        -1.213256         1.014723
 C         4.096981        -0.432703        -0.141730
 O         3.962937         1.084887         0.173262
 C         2.717382         1.039007        -0.537033
 C         3.010282        -0.217528        -1.338061
 O         1.765331        -0.838119        -1.018825
 H         0.137090         1.603584         0.379280
 H        -0.121090         0.307331        -0.759640
 H        -0.359418        -0.114956         0.998692
 H         2.288771         0.187693         2.109745
 H         1.562888        -1.367833         1.717781
 H         4.259122        -1.154397         1.965428
 H         3.590372        -2.260678         0.574293
 H         5.109657        -0.498203        -0.526439
 H         2.396866         2.026385        -0.856548
 H         3.380752        -0.343991        -2.358558
