19
Iteration:    28charge 0 multiplicity 1
 C         0.114220         0.549191         0.085855
 C         1.559982         0.120617         0.079793
 C         2.249928        -0.469452         1.429085
 C         3.610308        -1.103335         1.001177
 C         4.119896        -0.502771        -0.296590
 O         3.945036         0.900956         0.265845
 C         2.727279         1.059815        -0.523655
 C         3.029853        -0.231220        -1.283340
 O         1.862062        -0.983945        -0.945252
 H         0.112116         1.582090         0.596023
 H        -0.373524         0.701769        -0.972422
 H        -0.547230        -0.125873         0.736225
 H         2.375005         0.404436         2.093777
 H         1.561253        -1.223577         1.880508
 H         4.484201        -0.822734         1.800767
 H         3.495213        -2.229176         1.061285
 H         5.173337        -0.728680        -0.633488
 H         2.526043         2.111913        -0.870566
 H         3.358814        -0.199827        -2.398565
