19
Iteration:  3984charge 0 multiplicity 1
 C         0.279178         0.620140         0.224577
 C         1.563862        -0.021295         0.129542
 C         2.154186        -0.717682         1.348507
 C         3.546576        -1.191491         0.902436
 C         4.121482        -0.353520        -0.124912
 O         4.019802         1.130780         0.125450
 C         2.678812         1.061257        -0.483389
 C         3.059502        -0.251196        -1.255657
 O         1.816327        -0.914178        -0.989486
 H         0.306454         1.466019         0.902167
 H        -0.012339         0.941175        -0.732834
 H        -0.471364        -0.143645         0.497015
 H         2.219283         0.081415         2.165574
 H         1.541289        -1.463843         1.785451
 H         4.195732        -1.511194         1.764098
 H         3.439484        -2.169414         0.469075
 H         5.007904        -0.653784        -0.590665
 H         2.284951         2.072142        -0.732047
 H         3.286775        -0.607669        -2.268096
