19
Iteration:   490
 C         0.114310         0.484392         0.076698
 C         1.587340         0.133996         0.120124
 C         2.253602        -0.541676         1.360580
 C         3.687440        -1.140766         1.036455
 C         4.168219        -0.430623        -0.249772
 O         3.962026         0.982200         0.284942
 C         2.734048         0.997927        -0.534951
 C         3.009301        -0.290743        -1.310338
 O         1.708280        -0.856746        -0.960203
 H        -0.088708         1.325127         0.873744
 H        -0.241695         0.892053        -0.812141
 H        -0.310726        -0.500418         0.184525
 H         2.623787         0.230770         2.062030
 H         1.498148        -1.190902         1.853147
 H         4.428960        -0.736014         1.719399
 H         3.729932        -2.235783         1.115525
 H         5.207738        -0.597477        -0.494285
 H         2.577756         1.975896        -1.000269
 H         3.209840        -0.495194        -2.351053
