19
Iteration:   577
 C         0.243592         0.634546         0.223126
 C         1.616064         0.018067         0.061965
 C         2.269690        -0.570587         1.327263
 C         3.677117        -1.223645         1.085853
 C         4.154715        -0.383784        -0.100552
 O         3.820565         1.102729         0.191646
 C         2.701191         0.940367        -0.553647
 C         3.059412        -0.360974        -1.321561
 O         1.720880        -0.882320        -1.078714
 H         0.206201         1.568455         0.963681
 H        -0.083954         0.795131        -0.755606
 H        -0.454145        -0.008988         0.743359
 H         2.315669         0.325870         1.999821
 H         1.569240        -1.267841         1.850105
 H         4.385319        -1.054880         1.879684
 H         3.654389        -2.262790         0.910000
 H         5.214137        -0.382932        -0.411339
 H         2.394028         1.875287        -1.044015
 H         3.483408        -0.537621        -2.288023
