19
Iteration:  1120
 C         0.177794         0.561299         0.229467
 C         1.621298         0.102300         0.077345
 C         2.249664        -0.621511         1.377014
 C         3.706405        -1.223282         1.024644
 C         4.152297        -0.401261        -0.132990
 O         3.896994         1.040966         0.204765
 C         2.704463         1.018473        -0.598892
 C         3.042435        -0.269502        -1.313317
 O         1.729447        -0.882482        -1.037375
 H         0.261758         1.481455         0.902853
 H        -0.321162         0.857321        -0.701660
 H        -0.530958        -0.182242         0.732658
 H         2.255672         0.306080         1.976326
 H         1.447480        -1.348447         1.686189
 H         4.268652        -0.999783         1.913245
 H         3.817467        -2.346883         1.058072
 H         5.164012        -0.521025        -0.502165
 H         2.398278         1.926697        -0.997659
 H         3.377382        -0.481372        -2.379477
