19
Iteration:  1243charge 0 multiplicity 1
 C         0.215922         0.424540         0.203067
 C         1.598949         0.005849         0.146598
 C         2.305787        -0.432359         1.489065
 C         3.511807        -1.194493         1.037028
 C         4.078653        -0.393953        -0.149346
 O         4.008933         1.047965         0.155765
 C         2.731780         1.013432        -0.509807
 C         3.028383        -0.231202        -1.392008
 O         1.786871        -0.878485        -1.111848
 H         0.027066         1.066356         1.141191
 H        -0.345185         0.819929        -0.686731
 H        -0.411201        -0.485591         0.309764
 H         2.778577         0.476457         2.048334
 H         1.543419        -0.934025         2.221013
 H         4.197983        -1.529897         1.789085
 H         3.197615        -2.211150         0.509839
 H         5.126984        -0.746116        -0.355412
 H         2.212250         1.929725        -0.794421
 H         3.304245        -0.169885        -2.456728
