19
Iteration:  1844
 C         0.144843         0.452966         0.291521
 C         1.644204         0.105484         0.115007
 C         2.229125        -0.628785         1.451870
 C         3.545966        -1.297492         0.907809
 C         4.121967        -0.379001        -0.079629
 O         3.973907         1.141243         0.111287
 C         2.773987         1.071065        -0.614428
 C         3.081585        -0.267302        -1.249917
 O         1.739732        -0.856262        -1.042860
 H         0.074062         1.392041         0.774183
 H        -0.316150         0.659025        -0.746477
 H        -0.449561        -0.368588         0.652691
 H         2.528912         0.209759         2.055337
 H         1.583159        -1.340437         2.078218
 H         4.163305        -1.532628         1.766012
 H         3.171175        -2.247291         0.456445
 H         5.252157        -0.435805        -0.178043
 H         2.507643         2.021198        -1.260199
 H         3.582437        -0.367632        -2.233112
