19
Iteration:    99
 C         0.265675         0.684536         0.298098
 C         1.586430         0.076412         0.031813
 C         2.106526        -0.525104         1.289311
 C         3.562615        -1.103963         1.025971
 C         4.222755        -0.397846        -0.179965
 O         3.861154         1.070366         0.209000
 C         2.719975         0.963198        -0.591885
 C         3.073970        -0.362262        -1.327481
 O         1.838391        -1.059833        -0.971932
 H         0.337145         1.168531         1.264024
 H        -0.158254         1.381228        -0.425280
 H        -0.411258        -0.164068         0.411755
 H         2.227140         0.174830         2.160280
 H         1.465156        -1.391187         1.582153
 H         4.073772        -0.873128         1.908621
 H         3.659182        -2.211279         0.911553
 H         5.294457        -0.577664        -0.344748
 H         2.512228         1.953011        -1.146031
 H         3.365746        -0.427332        -2.340920
