19
Iteration:  3100charge 0 multiplicity 1
 C         0.244072         0.616671         0.156146
 C         1.583997        -0.015530         0.132891
 C         2.291552        -0.654028         1.460355
 C         3.691289        -1.197854         1.026817
 C         4.155812        -0.411363        -0.244579
 O         3.921690         1.004771         0.219460
 C         2.624833         1.014260        -0.476403
 C         2.989027        -0.209587        -1.282134
 O         1.735686        -0.839313        -1.110595
 H         0.159315         1.517468         0.768453
 H         0.195259         1.068052        -0.896560
 H        -0.536318        -0.169712         0.489813
 H         2.239427         0.190402         2.203000
 H         1.858377        -1.484098         1.978091
 H         4.393667        -1.158862         1.839681
 H         3.549138        -2.244891         0.781646
 H         5.163811        -0.535843        -0.643645
 H         2.230874         2.000122        -0.908015
 H         3.273056        -0.316199        -2.303724
