19
Iteration:  2038
 C         0.187382         0.549227         0.266238
 C         1.612418         0.070144         0.078752
 C         2.184932        -0.669645         1.370322
 C         3.589818        -1.176823         0.945554
 C         4.117355        -0.326258        -0.183412
 O         4.016609         1.056152         0.185825
 C         2.692649         0.985298        -0.542187
 C         3.002161        -0.206168        -1.322301
 O         1.797238        -0.955699        -0.938121
 H         0.201819         1.476187         0.785662
 H        -0.067852         0.935297        -0.841435
 H        -0.452538        -0.200896         0.680387
 H         2.090922        -0.080780         2.276607
 H         1.468040        -1.532537         1.432305
 H         4.320593        -0.794257         1.744020
 H         3.883373        -2.277822         0.843212
 H         5.188464        -0.368873        -0.531243
 H         2.451878         1.996516        -0.921290
 H         3.268334        -0.246027        -2.455261
