19
Iteration:  4383charge 0 multiplicity 1
 C         0.128204         0.447372         0.258684
 C         1.599063         0.079548         0.144949
 C         2.166950        -0.584382         1.394061
 C         3.433254        -1.302548         1.023888
 C         4.140970        -0.400017        -0.092299
 O         4.133374         1.109009        -0.032004
 C         2.642245         1.048506        -0.510906
 C         3.133059        -0.194371        -1.269545
 O         1.843970        -0.800190        -1.008945
 H        -0.092052         0.938688         1.166098
 H        -0.218801         0.997133        -0.610540
 H        -0.410693        -0.531898         0.205511
 H         2.426646         0.205637         2.137865
 H         1.503194        -1.346074         1.910706
 H         4.188806        -1.572166         1.831414
 H         3.147006        -2.319928         0.574456
 H         5.183848        -0.674564        -0.461282
 H         2.345368         2.021858        -0.885187
 H         3.388111        -0.550401        -2.276390
