19
Iteration:   796
 C         0.198105         0.487631         0.274638
 C         1.642050         0.037499         0.144053
 C         2.243622        -0.540642         1.382163
 C         3.548752        -1.271732         0.936032
 C         4.173437        -0.334560        -0.102017
 O         3.955822         1.073523         0.166158
 C         2.644269         1.006906        -0.622167
 C         3.119828        -0.277843        -1.293101
 O         1.746122        -0.841323        -1.031270
 H         0.065099         1.390152         0.960715
 H        -0.188820         0.797920        -0.685858
 H        -0.395289        -0.313671         0.623348
 H         2.350078         0.344774         2.019959
 H         1.582295        -1.305824         1.898360
 H         4.163551        -1.631793         1.837733
 H         3.152696        -2.170336         0.465070
 H         5.273437        -0.463840        -0.251684
 H         2.480013         2.001477        -1.045948
 H         3.461450        -0.421096        -2.288629
