19
Iteration:  2730
 C         0.236628         0.549473         0.173495
 C         1.628927         0.038699         0.196264
 C         2.255361        -0.605687         1.418509
 C         3.662628        -1.247385         0.992354
 C         4.107274        -0.403225        -0.208568
 O         3.910316         1.053701         0.231142
 C         2.647141         0.979279        -0.458904
 C         2.977246        -0.158782        -1.359644
 O         1.767091        -0.898577        -1.119896
 H         0.297985         1.528758         0.719255
 H         0.179588         0.775229        -0.846500
 H        -0.614154        -0.027747         0.543448
 H         2.543683         0.277504         2.031704
 H         1.523798        -1.133926         2.138344
 H         4.542678        -1.191989         1.772349
 H         3.637063        -2.335928         0.684143
 H         5.180405        -0.797534        -0.456092
 H         2.275901         1.960453        -0.742217
 H         3.420756        -0.141153        -2.340103
