19
Iteration:  2770charge 0 multiplicity 1
 C         0.173287         0.533041         0.254875
 C         1.602106         0.119397         0.215584
 C         2.123483        -0.679387         1.286672
 C         3.531158        -1.216981         0.875311
 C         4.142733        -0.433733        -0.234106
 O         4.016936         1.114213         0.169826
 C         2.785015         1.120682        -0.563726
 C         3.053403        -0.220222        -1.254433
 O         1.841815        -0.971378        -0.887253
 H        -0.118105         1.319705         0.917848
 H        -0.203059         0.961860        -0.749221
 H        -0.473483        -0.400030         0.318516
 H         2.261451        -0.031386         2.241754
 H         1.485069        -1.443670         1.592540
 H         4.107961        -1.211842         1.753914
 H         3.460376        -2.288841         0.659998
 H         5.081345        -0.470748        -0.607497
 H         2.395274         2.090726        -0.954755
 H         3.351849        -0.256247        -2.322901
