19
Iteration:  1231charge 0 multiplicity 1
 C         0.162802         0.396107         0.189293
 C         1.663776         0.026002         0.119498
 C         2.293984        -0.347777         1.441479
 C         3.536780        -1.202407         1.013143
 C         4.119653        -0.462886        -0.211042
 O         3.967171         0.933986         0.169216
 C         2.637556         1.035580        -0.454599
 C         3.005091        -0.135585        -1.318897
 O         1.823263        -0.910467        -1.100349
 H         0.028074         1.156613         1.073807
 H        -0.037249         0.981101        -0.724281
 H        -0.422767        -0.502232         0.467172
 H         2.549428         0.730860         1.847042
 H         1.737093        -0.986099         2.254640
 H         4.281989        -1.151901         1.808226
 H         3.139109        -2.293312         0.772450
 H         5.149292        -0.698957        -0.590783
 H         2.453272         2.054300        -0.668345
 H         3.454089        -0.154509        -2.365192
