19
Iteration:  3884charge 0 multiplicity 1
 C         0.207822         0.570922         0.314192
 C         1.606898         0.062334         0.086524
 C         2.145626        -0.650229         1.305105
 C         3.538697        -1.237933         0.958424
 C         4.157956        -0.399640        -0.179934
 O         4.008160         1.078015         0.205062
 C         2.702240         1.067881        -0.574031
 C         3.081404        -0.222395        -1.302126
 O         1.811583        -0.925198        -0.985694
 H         0.133575         0.975564         1.308314
 H        -0.117349         1.361829        -0.349233
 H        -0.483645        -0.293026         0.261410
 H         2.247523         0.149266         2.144763
 H         1.335447        -1.335953         1.539874
 H         4.291885        -1.126328         1.844380
 H         3.344102        -2.267323         0.557452
 H         5.235072        -0.601028        -0.371600
 H         2.370376         1.982194        -1.054774
 H         3.259835        -0.354490        -2.360501
