19
Iteration:  1571charge 0 multiplicity 1
 C         0.165177         0.521253         0.195487
 C         1.616840         0.015353         0.117231
 C         2.159072        -0.567129         1.411811
 C         3.550253        -1.191838         1.065192
 C         4.075707        -0.440219        -0.159294
 O         4.035901         1.064687         0.098416
 C         2.740847         1.102889        -0.546898
 C         3.057225        -0.238905        -1.327340
 O         1.822177        -0.885839        -0.956220
 H        -0.130711         0.948111         1.131695
 H        -0.172335         0.957854        -0.796424
 H        -0.375565        -0.391569         0.137886
 H         2.273766         0.158054         2.152795
 H         1.590213        -1.378213         1.840029
 H         4.240109        -1.257640         1.836160
 H         3.601225        -2.219597         0.620978
 H         5.110804        -0.618787        -0.549005
 H         2.388229         1.991018        -1.053608
 H         3.382512        -0.236423        -2.339420
