19
Iteration:  2810charge 0 multiplicity 1
 C         0.232714         0.533709         0.354945
 C         1.577898        -0.030880         0.073997
 C         2.265581        -0.589835         1.338567
 C         3.582175        -1.208840         1.040666
 C         4.160606        -0.379420        -0.159991
 O         3.913823         1.084692         0.209654
 C         2.736059         0.978653        -0.519381
 C         3.060760        -0.256966        -1.257698
 O         1.711335        -0.817639        -1.202150
 H         0.122222         1.016860         1.339531
 H         0.023632         1.229498        -0.536506
 H        -0.491467        -0.260613         0.215041
 H         2.458760         0.300470         1.859735
 H         1.610878        -1.283949         1.923037
 H         4.216268        -0.992164         1.897196
 H         3.536104        -2.271428         0.779517
 H         5.199289        -0.820700        -0.439465
 H         2.479615         1.927262        -1.018797
 H         3.463162        -0.445743        -2.269548
