19
Iteration:  1599charge 0 multiplicity 1
 C         0.169804         0.620186         0.259739
 C         1.600337         0.084745         0.054377
 C         2.185588        -0.507116         1.315742
 C         3.655297        -1.119952         1.050933
 C         4.220187        -0.404359        -0.173790
 O         3.882089         0.968731         0.252011
 C         2.746382         1.030363        -0.521542
 C         3.028178        -0.367467        -1.380125
 O         1.779014        -0.947200        -1.044709
 H         0.026852         0.880229         1.353454
 H        -0.179899         1.246469        -0.494915
 H        -0.483224        -0.322113         0.197221
 H         2.147389         0.123365         2.287727
 H         1.598715        -1.433046         1.577200
 H         4.339198        -0.851762         1.969263
 H         3.752962        -2.182947         0.837311
 H         5.241801        -0.345986        -0.447565
 H         2.454197         2.019173        -1.049774
 H         3.269280        -0.292037        -2.484709
