19
Iteration:  4587charge 0 multiplicity 1
 C         0.135808         0.594983         0.174338
 C         1.593419         0.122135         0.166912
 C         2.291151        -0.638365         1.334180
 C         3.655470        -1.283946         1.001710
 C         4.134288        -0.395572        -0.147157
 O         3.951233         1.106108         0.135913
 C         2.671701         1.013640        -0.572778
 C         3.027028        -0.268935        -1.254785
 O         1.795689        -0.900848        -0.955861
 H        -0.104608         0.985116         1.178787
 H        -0.063574         1.466595        -0.527789
 H        -0.623615        -0.164709        -0.053023
 H         2.509771         0.097524         2.071716
 H         1.628438        -1.356015         1.843977
 H         4.271797        -1.538120         1.857465
 H         3.402501        -2.220507         0.400603
 H         5.124813        -0.541932        -0.442006
 H         2.463838         1.989162        -1.043115
 H         3.350452        -0.498810        -2.265721
