19
Iteration:  3172
 C         0.201982         0.497064         0.332156
 C         1.618357         0.049028         0.087190
 C         2.269111        -0.542010         1.294044
 C         3.554167        -1.307982         1.006462
 C         4.136779        -0.329292        -0.091117
 O         3.933021         1.030696         0.187848
 C         2.738867         1.053056        -0.607051
 C         3.050112        -0.227629        -1.294516
 O         1.760577        -0.851420        -1.097334
 H         0.005804         0.835342         1.331576
 H        -0.166896         1.225464        -0.417345
 H        -0.277192        -0.440022         0.447222
 H         2.419597         0.239947         2.068086
 H         1.535876        -1.084958         1.955887
 H         4.170817        -1.528507         1.913898
 H         3.355979        -2.353085         0.562159
 H         5.200868        -0.560008        -0.341926
 H         2.363867         2.034261        -1.013250
 H         3.476475        -0.313159        -2.359034
