19
Iteration:  1749charge 0 multiplicity 1
 C         0.178335         0.621076         0.266176
 C         1.606360         0.117023         0.131559
 C         2.162489        -0.696302         1.320257
 C         3.581933        -1.174136         1.001295
 C         4.135832        -0.328124        -0.193704
 O         3.917586         1.135090         0.190839
 C         2.740121         0.984095        -0.634429
 C         3.083820        -0.317149        -1.314492
 O         1.832943        -0.957604        -0.920454
 H         0.082841         1.166163         1.257312
 H        -0.162650         1.287337        -0.481163
 H        -0.485658        -0.342496         0.209840
 H         2.182627        -0.052753         2.262657
 H         1.464587        -1.470512         1.494294
 H         4.479079        -1.206439         1.706104
 H         3.479045        -2.175600         0.451935
 H         5.207918        -0.634088        -0.434060
 H         2.622600         2.034788        -1.043762
 H         3.270184        -0.692472        -2.337598
