19
Iteration:   205
 C         0.262102         0.561735         0.207540
 C         1.614016        -0.023597         0.109076
 C         2.306436        -0.467839         1.361695
 C         3.629205        -1.162968         1.021526
 C         4.138226        -0.353887        -0.016688
 O         3.845842         1.046655         0.144386
 C         2.699217         0.944920        -0.546130
 C         3.070863        -0.390272        -1.206005
 O         1.726735        -0.882296        -1.206504
 H         0.322212         1.510693         1.025258
 H        -0.129748         0.958429        -0.675522
 H        -0.515017        -0.064692         0.609442
 H         2.448416         0.509875         1.856464
 H         1.592445        -1.046552         2.004335
 H         4.203088        -1.187604         1.983795
 H         3.401939        -2.285521         0.638190
 H         5.176501        -0.542426        -0.125084
 H         2.102916         1.786264        -1.025747
 H         3.607809        -0.343755        -2.150136
