19
Iteration:  3668charge 0 multiplicity 1
 C         0.200716         0.542380         0.343508
 C         1.620657         0.044979         0.046973
 C         2.175513        -0.488323         1.253585
 C         3.567967        -1.228976         0.959124
 C         4.102791        -0.407578        -0.230950
 O         3.993442         0.904133         0.285853
 C         2.666297         1.015745        -0.483331
 C         3.054706        -0.185613        -1.336042
 O         1.847487        -0.841735        -1.056331
 H         0.175443         0.816955         1.421631
 H        -0.271891         1.110819        -0.516833
 H        -0.338767        -0.529773         0.290969
 H         2.566608         0.279370         1.965968
 H         1.556943        -1.176837         1.828339
 H         4.206231        -0.781008         1.720200
 H         3.421833        -2.306825         1.036135
 H         5.094267        -0.618718        -0.571749
 H         2.266137         2.076766        -0.702802
 H         3.223326        -0.156356        -2.454131
