19
Iteration:  1478
 C         0.228405         0.599018         0.281190
 C         1.581375        -0.000159         0.044932
 C         2.168365        -0.706836         1.380216
 C         3.598320        -1.196621         1.066227
 C         4.150425        -0.328258        -0.049696
 O         4.024498         1.165323         0.076937
 C         2.698422         0.988436        -0.552808
 C         3.055339        -0.277786        -1.306042
 O         1.748585        -0.907147        -1.093144
 H         0.450518         1.352939         1.069657
 H        -0.051244         0.844384        -0.709297
 H        -0.622439        -0.031289         0.718696
 H         1.994174         0.056311         2.176607
 H         1.502546        -1.511564         1.769976
 H         4.258753        -1.112255         2.050386
 H         3.497463        -2.226869         0.821647
 H         5.119426        -0.703573        -0.356821
 H         2.261139         2.021648        -0.991775
 H         3.470426        -0.523173        -2.338517
