19
Iteration:   987
 C         0.263601         0.629143         0.346487
 C         1.653459         0.103409         0.157862
 C         2.058029        -0.785941         1.250290
 C         3.551383        -1.072884         1.011581
 C         4.183867        -0.413332        -0.182577
 O         3.939891         1.090024         0.085086
 C         2.694525         1.024196        -0.520130
 C         3.039296        -0.257555        -1.393735
 O         1.889518        -0.968810        -0.915137
 H         0.297383         1.350532         1.064169
 H        -0.239660         0.956503        -0.595403
 H        -0.534092        -0.111982         0.573047
 H         1.885145        -0.439258         2.319721
 H         1.359523        -1.616552         1.250947
 H         4.023649        -0.472325         1.799905
 H         3.838462        -2.085844         0.993183
 H         5.171964        -0.739244        -0.354562
 H         2.374394         1.941533        -0.989000
 H         3.244726        -0.221135        -2.491795
