19
Iteration:  1015charge 0 multiplicity 1
 C         0.229815         0.611861         0.340959
 C         1.598449         0.010091         0.074118
 C         2.165278        -0.731291         1.336294
 C         3.668564        -1.140592         1.102509
 C         4.127028        -0.335641        -0.070966
 O         3.962710         1.128025         0.076175
 C         2.691800         1.014815        -0.583461
 C         3.049087        -0.312702        -1.333105
 O         1.780066        -0.937535        -1.076629
 H         0.242631         1.156982         1.394364
 H         0.053447         1.483430        -0.383492
 H        -0.710788         0.026692         0.370828
 H         1.870834        -0.154797         2.243457
 H         1.475300        -1.589108         1.471299
 H         4.171195        -0.823590         2.093766
 H         3.775724        -2.185126         0.676409
 H         5.161854        -0.660284        -0.439211
 H         2.367327         1.993946        -1.115670
 H         3.366010        -0.468885        -2.378967
