19
Iteration:  3597
 C         0.182185         0.623138         0.198652
 C         1.641904         0.032121         0.150905
 C         2.205172        -0.714980         1.361822
 C         3.577111        -1.194262         0.937471
 C         4.101666        -0.317831        -0.262163
 O         4.055261         1.012908         0.262923
 C         2.626742         1.056758        -0.498774
 C         2.970091        -0.159062        -1.332794
 O         1.854015        -0.944715        -0.962147
 H         0.253308         1.515379         0.837377
 H        -0.035831         0.802839        -0.839899
 H        -0.537159        -0.028648         0.589654
 H         2.186518        -0.027562         2.186968
 H         1.551991        -1.602112         1.647321
 H         4.259101        -1.297043         1.782801
 H         3.382547        -2.202622         0.544703
 H         5.132370        -0.671327        -0.605285
 H         2.421933         1.980234        -0.923404
 H         3.198721        -0.243123        -2.360395
