19
Iteration:   590charge 0 multiplicity 1
 C         0.242070         0.493159         0.153485
 C         1.611135        -0.051823         0.108492
 C         2.296730        -0.499679         1.450497
 C         3.614138        -1.143173         1.043893
 C         4.091481        -0.368283        -0.149729
 O         3.969659         1.031679         0.235269
 C         2.676827         0.995403        -0.568018
 C         3.054600        -0.277756        -1.298878
 O         1.691682        -0.884873        -1.101479
 H         0.390809         1.560894         0.569774
 H        -0.116964         0.730058        -0.890996
 H        -0.582938        -0.086870         0.655838
 H         2.569867         0.493479         2.026465
 H         1.717249        -1.142416         2.098215
 H         4.312041        -1.137285         1.848911
 H         3.370869        -2.188278         0.663791
 H         5.066542        -0.646274        -0.440313
 H         2.294043         1.946102        -0.941633
 H         3.365922        -0.429790        -2.279560
