19
Iteration:  2706
 C         0.197885         0.549595         0.328994
 C         1.587390         0.063132         0.036400
 C         2.238659        -0.579901         1.300352
 C         3.556959        -1.183493         0.955030
 C         4.169993        -0.365976        -0.201482
 O         3.888915         1.005123         0.245725
 C         2.719170         1.034066        -0.555626
 C         3.055000        -0.197394        -1.338149
 O         1.827894        -0.947819        -1.008748
 H         0.370281         1.311149         1.056743
 H        -0.246668         0.939075        -0.487718
 H        -0.469272        -0.233981         0.752880
 H         2.264546         0.241848         2.137140
 H         1.648996        -1.366742         1.799431
 H         4.301813        -1.298239         1.837002
 H         3.295700        -2.245284         0.674006
 H         5.204969        -0.613396        -0.424051
 H         2.390396         2.068220        -0.788090
 H         3.484086        -0.334059        -2.332073
