19
Iteration:    42charge 0 multiplicity 1
 C         0.182131         0.532404         0.091333
 C         1.627741         0.031332         0.127164
 C         2.223984        -0.473030         1.391480
 C         3.598219        -1.173723         1.054448
 C         4.094974        -0.385211        -0.138436
 O         4.019534         1.009636         0.160255
 C         2.727099         0.987427        -0.502160
 C         2.995182        -0.280802        -1.315156
 O         1.763358        -0.898975        -0.994052
 H         0.076093         1.628218         0.488804
 H        -0.122200         0.474777        -0.900226
 H        -0.437950        -0.109312         0.654972
 H         2.379027         0.308174         2.204627
 H         1.573349        -1.291053         1.898283
 H         4.290534        -1.110700         1.850209
 H         3.476209        -2.259479         0.680792
 H         5.083059        -0.681865        -0.448832
 H         2.454495         2.080505        -0.926087
 H         3.325656        -0.444898        -2.336353
