19
Iteration:  1337charge 0 multiplicity 1
 C         0.215987         0.540620         0.223776
 C         1.622873         0.045122         0.114488
 C         2.192759        -0.685295         1.394254
 C         3.667100        -1.137944         1.129570
 C         4.203891        -0.383817        -0.127589
 O         3.991044         1.062589         0.134986
 C         2.693129         0.978602        -0.541607
 C         2.947200        -0.239594        -1.347874
 O         1.703983        -0.870878        -1.114674
 H         0.118247         1.471024         0.871530
 H        -0.081179         0.797573        -0.765662
 H        -0.624520        -0.105844         0.593636
 H         2.173729         0.070761         2.178189
 H         1.611009        -1.493641         1.828904
 H         4.410661        -0.868234         1.985117
 H         3.674260        -2.224493         0.983187
 H         5.174706        -0.646145        -0.555505
 H         2.458592         2.095652        -0.873515
 H         3.462036        -0.350510        -2.388580
