19
Iteration:  4390charge 0 multiplicity 1
 C         0.118002         0.415504         0.254450
 C         1.608700         0.065186         0.165216
 C         2.189621        -0.542642         1.332940
 C         3.410742        -1.285940         0.996947
 C         4.169052        -0.370924        -0.124674
 O         4.137554         1.064711         0.023829
 C         2.707590         1.062441        -0.529245
 C         3.077097        -0.235459        -1.278224
 O         1.831356        -0.802972        -0.972773
 H        -0.272413         0.844640         1.196826
 H        -0.199271         1.053535        -0.593690
 H        -0.407290        -0.506857         0.286812
 H         2.448315         0.224756         1.999814
 H         1.480051        -1.242537         1.769903
 H         3.983687        -1.312585         1.860348
 H         3.312576        -2.299214         0.657798
 H         5.108694        -0.698745        -0.442547
 H         2.225464         2.019859        -0.767123
 H         3.473903        -0.334773        -2.269888
