19
Iteration:  4495charge 0 multiplicity 1
 C         0.187099         0.565596         0.266413
 C         1.646368         0.110184         0.076098
 C         2.216057        -0.641463         1.284241
 C         3.620729        -1.291789         1.068566
 C         4.106753        -0.383628        -0.167215
 O         3.937312         1.088611         0.210741
 C         2.710505         1.081438        -0.571265
 C         3.048164        -0.280469        -1.348673
 O         1.780736        -0.901900        -0.972364
 H         0.317382         1.557880         0.720817
 H        -0.300208         0.677726        -0.675667
 H        -0.531865        -0.040898         0.821044
 H         2.131151        -0.140305         2.320298
 H         1.428857        -1.358968         1.453957
 H         4.451103        -1.038104         1.823729
 H         3.581553        -2.361230         0.848711
 H         5.127736        -0.640712        -0.631581
 H         2.471693         2.056179        -1.036691
 H         3.421268        -0.388620        -2.426388
