19
Iteration:  3529
 C         0.158540         0.470517         0.346556
 C         1.598727         0.150988         0.150612
 C         2.186211        -0.637875         1.277361
 C         3.495844        -1.252071         0.970108
 C         4.147685        -0.409966        -0.159341
 O         4.004847         1.145679         0.166895
 C         2.742672         1.031120        -0.611221
 C         3.105075        -0.257096        -1.337939
 O         1.857946        -0.848126        -0.958937
 H         0.077983         0.873229         1.414904
 H        -0.177957         1.084460        -0.479105
 H        -0.575085        -0.333145         0.372429
 H         2.185583        -0.039081         2.210027
 H         1.370535        -1.450897         1.428643
 H         4.098685        -1.509186         1.899458
 H         3.236106        -2.260300         0.444075
 H         5.199530        -0.652124        -0.565124
 H         2.208771         2.052066        -0.941305
 H         3.379520        -0.435890        -2.416227
