19
Iteration:  2714
 C         0.242427         0.590672         0.264173
 C         1.595883        -0.028847         0.029155
 C         2.275260        -0.575045         1.390497
 C         3.573810        -1.227647         0.952642
 C         4.065524        -0.359066        -0.220274
 O         3.913476         1.002987         0.262089
 C         2.695709         1.046772        -0.498232
 C         3.047359        -0.227695        -1.314223
 O         1.834312        -0.914295        -1.050381
 H         0.268393         1.327563         1.041783
 H        -0.332701         0.959733        -0.687513
 H        -0.325237        -0.191653         0.783654
 H         2.540057         0.378603         1.954219
 H         1.680772        -1.336909         1.799247
 H         4.172999        -0.961792         1.760755
 H         3.417415        -2.295485         0.745020
 H         5.047888        -0.430400        -0.542929
 H         2.240693         2.035253        -0.772358
 H         3.389425        -0.312417        -2.387556
