19
Iteration:  1251
 C         0.154319         0.427284         0.238381
 C         1.631262         0.055501         0.121681
 C         2.284074        -0.528926         1.490015
 C         3.499018        -1.255539         0.983712
 C         4.094178        -0.372666        -0.124967
 O         4.015455         1.136864         0.133856
 C         2.758512         0.978030        -0.588399
 C         3.045752        -0.250782        -1.331454
 O         1.769310        -0.863412        -1.060384
 H        -0.007291         1.104302         1.136186
 H        -0.007653         0.925323        -0.665116
 H        -0.319704        -0.555593         0.444133
 H         2.527692         0.412678         2.104308
 H         1.464395        -1.029873         2.113445
 H         4.227476        -1.397716         1.786537
 H         3.062877        -2.136391         0.427700
 H         5.155419        -0.574494        -0.284383
 H         2.443180         1.918258        -0.921912
 H         3.310205        -0.445802        -2.459561
