19
Iteration:   363charge 0 multiplicity 1
 C         0.207949         0.586730         0.179989
 C         1.602584        -0.026745         0.158993
 C         2.092486        -0.776596         1.430055
 C         3.588476        -1.138613         1.080119
 C         4.158916        -0.308440        -0.099357
 O         4.071502         1.154069         0.011519
 C         2.749724         1.037434        -0.568866
 C         3.016554        -0.315330        -1.236456
 O         1.712541        -0.864519        -1.016948
 H         0.234772         1.376471         0.802668
 H         0.313662         0.839090        -0.980932
 H        -0.540661        -0.282224         0.273850
 H         2.167559         0.029141         2.215816
 H         1.498099        -1.580414         1.821815
 H         4.260226        -1.100802         1.936669
 H         3.675806        -2.181327         0.733020
 H         5.127580        -0.737856        -0.385180
 H         2.369391         1.908080        -1.065211
 H         3.362503        -0.370982        -2.271796
