19
Iteration:  1597charge 0 multiplicity 1
 C         0.166473         0.602738         0.260258
 C         1.618205         0.113044         0.059832
 C         2.183346        -0.500358         1.313102
 C         3.625275        -1.119398         1.037080
 C         4.224158        -0.407594        -0.175679
 O         3.884936         0.965538         0.250769
 C         2.738220         1.034885        -0.513652
 C         3.020819        -0.368718        -1.373296
 O         1.788383        -0.948455        -1.041730
 H         0.066002         0.865106         1.323934
 H        -0.184256         1.232633        -0.530106
 H        -0.535831        -0.318272         0.178574
 H         2.129394         0.149707         2.299350
 H         1.654726        -1.453424         1.579666
 H         4.340932        -0.853512         1.899596
 H         3.842770        -2.210948         0.895721
 H         5.279296        -0.354841        -0.478278
 H         2.488930         1.937260        -1.007911
 H         3.240295        -0.298610        -2.470422
