19
Iteration:   898charge 0 multiplicity 1
 C         0.149017         0.448494         0.322687
 C         1.635873         0.108371         0.086794
 C         2.169956        -0.587989         1.387152
 C         3.492328        -1.244357         0.966080
 C         4.216353        -0.378856        -0.176626
 O         3.996921         1.101788         0.118293
 C         2.714255         1.019418        -0.610027
 C         3.091383        -0.223966        -1.306006
 O         1.807170        -0.887120        -0.956453
 H        -0.066988         1.006076         1.185867
 H        -0.276114         0.951337        -0.631059
 H        -0.383538        -0.557937         0.360319
 H         2.488029         0.222580         2.143889
 H         1.374637        -1.138453         1.882507
 H         4.015378        -1.410419         1.913260
 H         3.218744        -2.080327         0.356006
 H         5.273642        -0.538437        -0.312171
 H         2.480860         2.093876        -0.864965
 H         3.400762        -0.445645        -2.337990
