19
Iteration:  1628charge 0 multiplicity 1
 C         0.270615         0.599656         0.234599
 C         1.594251        -0.019018         0.117919
 C         2.204561        -0.645650         1.388781
 C         3.581168        -1.230359         1.029680
 C         4.096284        -0.383492        -0.090203
 O         3.926727         1.161675         0.068789
 C         2.673730         1.037800        -0.542963
 C         3.071662        -0.363016        -1.242057
 O         1.814156        -0.880083        -1.083253
 H         0.201410         1.221037         1.120279
 H         0.081758         1.341801        -0.593688
 H        -0.487693        -0.228831         0.346670
 H         2.451139         0.020280         2.271397
 H         1.426566        -1.348082         1.727516
 H         4.071644        -0.962734         1.962417
 H         3.594524        -2.311106         0.599332
 H         5.232109        -0.456062        -0.231608
 H         2.252101         1.776141        -1.130008
 H         3.429838        -0.281955        -2.267598
