19
Iteration:   253
 C         0.233126         0.569217         0.176045
 C         1.603901         0.205007         0.114162
 C         2.051307        -0.688380         1.317936
 C         3.587831        -1.061515         1.015540
 C         4.135024        -0.319561        -0.208946
 O         4.026531         1.015060         0.112849
 C         2.711105         1.058471        -0.525963
 C         3.017442        -0.346862        -1.319305
 O         1.900367        -0.981243        -0.830930
 H         0.081205         1.312680         0.897990
 H        -0.286398         1.007007        -0.804249
 H        -0.465605        -0.339903         0.423839
 H         1.890360        -0.376097         2.395193
 H         1.442132        -1.550544         1.150176
 H         4.157103        -0.782323         1.856137
 H         3.550667        -2.109518         0.967975
 H         5.027369        -0.773675        -0.636329
 H         2.343363         1.949187        -0.976505
 H         3.378125        -0.643496        -2.286056
