19
Iteration:   901
 C         0.148938         0.437705         0.313914
 C         1.640433         0.112853         0.110586
 C         2.163206        -0.535548         1.371470
 C         3.460647        -1.254836         0.938822
 C         4.203648        -0.354234        -0.178568
 O         4.006523         1.097972         0.136972
 C         2.708289         1.039489        -0.592611
 C         3.090961        -0.236626        -1.327757
 O         1.840800        -0.914588        -0.938095
 H        -0.054462         1.078537         1.274667
 H        -0.285884         0.919343        -0.621331
 H        -0.342398        -0.587492         0.470081
 H         2.475272         0.207900         2.122956
 H         1.374596        -1.166821         1.809143
 H         3.979849        -1.456141         1.844918
 H         3.151697        -2.236065         0.342801
 H         5.273960        -0.588612        -0.386664
 H         2.474090         2.024337        -0.952186
 H         3.424520        -0.402337        -2.389137
