19
Iteration:  3873charge 0 multiplicity 1
 C         0.185874         0.610452         0.263469
 C         1.625247         0.149301         0.128417
 C         2.220761        -0.605390         1.239656
 C         3.651847        -1.239886         0.965901
 C         4.139254        -0.339500        -0.106009
 O         3.912637         1.008839         0.211038
 C         2.737801         0.960135        -0.497446
 C         2.958853        -0.254333        -1.333974
 O         1.794763        -0.929102        -1.043316
 H         0.032244         0.969009         1.257093
 H        -0.005644         1.376524        -0.488391
 H        -0.572900        -0.170349         0.068388
 H         2.471380         0.190971         2.080182
 H         1.576295        -1.326279         1.752516
 H         4.306478        -1.248034         1.968209
 H         3.698962        -2.346527         0.662164
 H         5.185983        -0.625213        -0.374283
 H         2.439893         1.940481        -0.845443
 H         3.326114        -0.180373        -2.358504
