19
Iteration:    27
 C         0.109070         0.559132         0.093753
 C         1.560795         0.123025         0.083385
 C         2.244159        -0.466489         1.423200
 C         3.606050        -1.113198         1.002878
 C         4.125997        -0.517174        -0.310145
 O         3.940917         0.911104         0.274902
 C         2.723483         1.060871        -0.528091
 C         3.031524        -0.232662        -1.296984
 O         1.869796        -0.985151        -0.937474
 H         0.093454         1.550379         0.595590
 H        -0.382081         0.714268        -1.005291
 H        -0.567124        -0.152166         0.743072
 H         2.384914         0.381416         2.077550
 H         1.584113        -1.191900         1.869622
 H         4.502825        -0.795011         1.810861
 H         3.509191        -2.209361         1.093066
 H         5.204069        -0.745637        -0.614108
 H         2.526943         2.056357        -0.842599
 H         3.375338        -0.168654        -2.411540
