19
Iteration:  2920
 C         0.239804         0.515020         0.286709
 C         1.607692         0.117776         0.069026
 C         2.241284        -0.523814         1.277586
 C         3.643558        -1.203551         1.006880
 C         4.107302        -0.380832        -0.163394
 O         3.858052         0.941404         0.256996
 C         2.723781         1.070126        -0.515502
 C         2.979304        -0.256503        -1.337519
 O         1.837664        -0.919680        -1.092734
 H         0.288346         1.317448         0.972173
 H        -0.249489         0.890888        -0.505863
 H        -0.333240        -0.085125         0.888944
 H         2.255435         0.205929         2.064536
 H         1.475580        -1.278722         1.586382
 H         4.337934        -1.037928         1.853530
 H         3.555413        -2.282969         0.789324
 H         5.194822        -0.563725        -0.470980
 H         2.496142         2.147946        -0.607425
 H         3.348197        -0.497182        -2.362083
