19
Iteration:   703
 C         0.263249         0.711729         0.299013
 C         1.595434         0.097017         0.130913
 C         2.134886        -0.690598         1.276452
 C         3.581085        -1.135254         1.009781
 C         4.153073        -0.349085        -0.165307
 O         3.894536         1.091443         0.160265
 C         2.663194         0.947153        -0.590141
 C         3.064141        -0.325982        -1.304134
 O         1.874633        -0.973844        -0.979713
 H         0.354352         1.311970         1.167195
 H        -0.053025         1.514029        -0.462412
 H        -0.452006        -0.152974         0.395286
 H         2.173240        -0.210474         2.300220
 H         1.520186        -1.594148         1.333589
 H         4.308205        -1.073328         1.793069
 H         3.630430        -2.279750         0.857659
 H         5.236094        -0.487188        -0.333743
 H         2.172177         1.792042        -1.108224
 H         3.358140        -0.533535        -2.383406
