19
Iteration:  1602charge 0 multiplicity 1
 C         0.176388         0.627109         0.268927
 C         1.572392         0.046351         0.048368
 C         2.192358        -0.532991         1.327719
 C         3.709829        -1.116934         1.077474
 C         4.195104        -0.392954        -0.167398
 O         3.883706         0.981488         0.251778
 C         2.749000         1.014972        -0.551842
 C         3.046544        -0.347073        -1.385226
 O         1.763909        -0.942350        -1.046801
 H        -0.020729         0.944881         1.314413
 H        -0.200805         1.368280        -0.496692
 H        -0.378704        -0.276601         0.217669
 H         2.190048         0.065738         2.169989
 H         1.508199        -1.359323         1.565986
 H         4.269777        -0.890569         1.978710
 H         3.568341        -2.177441         0.781331
 H         5.266619        -0.392766        -0.422009
 H         2.433903         2.061721        -1.039834
 H         3.317627        -0.330191        -2.438630
