19
Iteration:  1215charge 0 multiplicity 1
 C         0.125362         0.451406         0.187524
 C         1.570679         0.079030         0.127457
 C         2.257828        -0.443584         1.360277
 C         3.581114        -1.168126         0.974281
 C         4.092209        -0.463957        -0.280366
 O         3.982242         0.961273         0.241122
 C         2.738674         1.050576        -0.484682
 C         3.034970        -0.211677        -1.346367
 O         1.850796        -0.895527        -0.943239
 H        -0.107404         1.141530         0.920619
 H        -0.299981         0.810665        -0.741466
 H        -0.526660        -0.421114         0.295781
 H         2.572211         0.310697         2.011954
 H         1.573014        -1.111046         1.807894
 H         4.409225        -1.017757         1.721602
 H         3.567003        -2.205086         0.949536
 H         5.089836        -0.751307        -0.567174
 H         2.378811         2.049074        -0.876713
 H         3.224071        -0.156958        -2.413741
