19
Iteration:  1813charge 0 multiplicity 1
 C         0.144000         0.445009         0.227675
 C         1.634176         0.156742         0.117132
 C         2.164424        -0.564481         1.373130
 C         3.558273        -1.145920         0.906122
 C         4.147907        -0.416799        -0.219635
 O         3.989219         0.985979         0.167748
 C         2.733723         1.059830        -0.492975
 C         3.042155        -0.233576        -1.319171
 O         1.833579        -0.900787        -0.924356
 H        -0.089618         1.116412         1.069231
 H        -0.176657         0.860367        -0.714190
 H        -0.345098        -0.525619         0.509611
 H         2.223949         0.211865         2.102194
 H         1.516858        -1.333149         1.741339
 H         4.257466        -1.071069         1.761760
 H         3.244937        -2.209830         0.716747
 H         5.253623        -0.675230        -0.446243
 H         2.426457         2.061146        -1.085609
 H         3.446887        -0.179928        -2.326916
