19
Iteration:  3225
 C         0.125909         0.576497         0.153943
 C         1.596736         0.084029         0.133222
 C         2.180367        -0.650169         1.323694
 C         3.625965        -1.224104         0.915064
 C         4.152109        -0.420123        -0.258053
 O         4.027349         1.073679         0.187063
 C         2.693843         1.120447        -0.447880
 C         2.985537        -0.242904        -1.257798
 O         1.845841        -0.902087        -0.891272
 H         0.169023         1.344993         1.012463
 H        -0.119432         0.899405        -0.869162
 H        -0.557555        -0.245827         0.361778
 H         2.112814        -0.165325         2.285471
 H         1.458630        -1.582159         1.340005
 H         4.396676        -1.188679         1.731548
 H         3.490315        -2.266360         0.520075
 H         5.219213        -0.807389        -0.408174
 H         2.385632         2.100830        -0.751687
 H         3.168537        -0.525188        -2.367614
