19
Iteration:  4037
 C         0.244399         0.460497         0.287518
 C         1.650240         0.093278         0.039543
 C         2.210282        -0.574933         1.378164
 C         3.578099        -1.136392         0.990826
 C         4.059632        -0.404081        -0.170325
 O         3.974577         0.966874         0.279684
 C         2.767929         1.065830        -0.537262
 C         3.019869        -0.260717        -1.367190
 O         1.738126        -0.873942        -1.066951
 H         0.158525         0.789606         1.284670
 H         0.041707         1.190964        -0.425326
 H        -0.535209        -0.291538         0.093042
 H         2.239382         0.274850         2.063448
 H         1.533536        -1.312885         1.637536
 H         4.372448        -0.761207         1.700783
 H         3.585343        -2.188777         0.997059
 H         5.061732        -0.602401        -0.483334
 H         2.651715         2.038549        -0.983721
 H         3.136607        -0.321970        -2.415074
