19
Iteration:   876
 C         0.155842         0.525816         0.227143
 C         1.621923         0.011608         0.143999
 C         2.282254        -0.613768         1.389529
 C         3.718565        -1.195495         1.098542
 C         4.075361        -0.383627        -0.146040
 O         4.020532         1.078932         0.144252
 C         2.674852         0.960497        -0.558693
 C         2.987196        -0.279376        -1.267896
 O         1.705646        -0.805271        -1.136706
 H        -0.022494         0.878299         1.207259
 H         0.057194         1.385051        -0.588192
 H        -0.610395        -0.316846         0.003083
 H         2.287345         0.080123         2.322571
 H         1.609311        -1.423286         1.694690
 H         4.278799        -0.813882         2.001386
 H         3.585927        -2.264474         0.785827
 H         5.056003        -0.583535        -0.548689
 H         2.469227         1.983376        -1.073291
 H         3.493237        -0.382777        -2.240011
