19
Iteration:  2520
 C         0.173335         0.595150         0.141066
 C         1.621886         0.044983         0.201646
 C         2.301164        -0.712079         1.395346
 C         3.736453        -1.284707         1.069350
 C         4.106287        -0.343959        -0.177260
 O         3.948226         1.087853         0.156437
 C         2.691355         1.003548        -0.446270
 C         2.916310        -0.211444        -1.350669
 O         1.723249        -0.857337        -1.107494
 H        -0.015402         1.304163         0.961795
 H        -0.001654         0.991458        -0.878096
 H        -0.634259        -0.242400         0.306290
 H         2.453276        -0.057205         2.207736
 H         1.727529        -1.525254         1.802040
 H         4.367594        -1.079804         1.947893
 H         3.959865        -2.294322         0.800088
 H         5.205334        -0.437843        -0.404251
 H         2.270940         1.990969        -0.815576
 H         3.372273        -0.207354        -2.384388
