19
Iteration:  3472
 C         0.172393         0.553005         0.067392
 C         1.563649         0.093427         0.158115
 C         2.370609        -0.652591         1.434294
 C         3.697120        -1.270232         1.044677
 C         4.104892        -0.353548        -0.212109
 O         3.955507         0.993496         0.240113
 C         2.671432         1.043600        -0.501044
 C         2.971964        -0.227064        -1.277360
 O         1.703217        -0.847331        -1.084397
 H         0.137474         1.263133         0.918460
 H         0.014820         1.077112        -0.894622
 H        -0.441562        -0.377126         0.298248
 H         2.508167         0.217749         2.186178
 H         1.724546        -1.366394         1.997598
 H         4.518085        -1.343703         1.825985
 H         3.591506        -2.367741         0.698865
 H         5.177872        -0.411613        -0.491133
 H         2.447403         2.169668        -0.892692
 H         3.166803        -0.213038        -2.377265
