19
Iteration:  3609
 C         0.199566         0.569833         0.184367
 C         1.560969         0.034079         0.179668
 C         2.200505        -0.671610         1.358145
 C         3.562625        -1.321454         0.866038
 C         4.138197        -0.377026        -0.163077
 O         4.010582         1.159072         0.159109
 C         2.798566         1.088268        -0.479385
 C         3.003899        -0.214939        -1.284298
 O         1.786574        -0.916066        -0.940881
 H         0.076593         1.526310         0.732082
 H        -0.177742         0.862712        -0.822907
 H        -0.515367        -0.129852         0.582341
 H         2.249694        -0.132983         2.321094
 H         1.499147        -1.530915         1.510198
 H         4.298398        -1.461422         1.654764
 H         3.432552        -2.281384         0.394294
 H         5.230320        -0.512308        -0.463220
 H         2.346197         1.989877        -0.687338
 H         3.253356        -0.272494        -2.318282
