19
Iteration:  4927charge 0 multiplicity 1
 C         0.223267         0.553425         0.271773
 C         1.636562         0.029054         0.077441
 C         2.197653        -0.657056         1.346533
 C         3.557468        -1.181056         0.962112
 C         4.126925        -0.348458        -0.186535
 O         3.975194         1.047219         0.171122
 C         2.663807         1.047914        -0.537119
 C         3.025304        -0.237671        -1.308439
 O         1.821712        -0.939598        -0.995250
 H         0.361925         1.420027         0.902983
 H        -0.249350         0.895490        -0.612529
 H        -0.284783        -0.168242         0.893884
 H         2.259315         0.043092         2.151429
 H         1.308053        -1.297298         1.602103
 H         4.118548        -0.999665         1.842777
 H         3.675987        -2.243088         0.738363
 H         5.151792        -0.501451        -0.530016
 H         2.325907         2.143669        -0.610133
 H         3.427003        -0.265670        -2.378196
