19
Iteration:  4682charge 0 multiplicity 1
 C         0.209457         0.574867         0.238876
 C         1.627864         0.090458         0.134120
 C         2.222567        -0.649434         1.390337
 C         3.545949        -1.256376         0.939314
 C         4.121755        -0.407337        -0.146451
 O         3.953886         1.068688         0.108853
 C         2.683387         1.085578        -0.521228
 C         3.055857        -0.210740        -1.301595
 O         1.826353        -0.949391        -1.014025
 H         0.227612         1.656898         0.549711
 H        -0.350842         0.493570        -0.691113
 H        -0.387203         0.012449         0.942189
 H         2.490218         0.071020         2.275525
 H         1.482334        -1.336156         1.742045
 H         4.131015        -1.255853         1.897949
 H         3.404989        -2.255928         0.607823
 H         5.244141        -0.564960        -0.249434
 H         2.144504         1.964333        -0.841789
 H         3.545001        -0.192461        -2.228061
