19
Iteration:   788charge 0 multiplicity 1
 C         0.199671         0.489882         0.279913
 C         1.594638         0.081700         0.105711
 C         2.281672        -0.483519         1.408958
 C         3.530167        -1.232080         0.917102
 C         4.128329        -0.406634        -0.159539
 O         3.917216         1.044440         0.230918
 C         2.725446         1.000074        -0.574254
 C         3.102595        -0.231700        -1.304753
 O         1.781005        -0.901651        -1.056287
 H        -0.004475         1.373579         0.906715
 H        -0.334109         0.646162        -0.774215
 H        -0.331254        -0.388078         0.791824
 H         2.547589         0.428349         2.048539
 H         1.533874        -1.106236         1.894599
 H         4.284910        -1.498130         1.755036
 H         3.315423        -2.295916         0.516684
 H         5.180673        -0.490113        -0.361013
 H         2.411105         2.007487        -1.013232
 H         3.489798        -0.346354        -2.309051
