19
Iteration:  4710charge 0 multiplicity 1
 C         0.233564         0.572670         0.208244
 C         1.590804        -0.005859         0.050772
 C         2.230972        -0.476872         1.417729
 C         3.664967        -1.167369         0.943846
 C         4.188780        -0.353060        -0.263898
 O         3.922209         0.929852         0.316619
 C         2.650788         1.008168        -0.491470
 C         3.024172        -0.234826        -1.381438
 O         1.762025        -0.955115        -0.997937
 H         0.395720         1.551569         0.674591
 H        -0.259403         0.870072        -0.728762
 H        -0.524964        -0.048463         0.791003
 H         2.369734         0.340187         2.076538
 H         1.521495        -1.210621         1.886501
 H         4.326412        -1.176029         1.809497
 H         3.321734        -2.179425         0.633825
 H         5.263083        -0.431779        -0.398768
 H         2.257495         1.986600        -0.843804
 H         3.387679        -0.194865        -2.474977
