19
Iteration:  4320
 C         0.157567         0.711024         0.206815
 C         1.546159         0.048986         0.107645
 C         2.283719        -0.671606         1.398212
 C         3.689375        -1.186586         1.015970
 C         4.115352        -0.376736        -0.229568
 O         3.925743         0.994606         0.301540
 C         2.688310         0.993644        -0.541958
 C         3.000670        -0.215195        -1.369481
 O         1.817298        -0.967951        -1.067637
 H         0.148393         1.679594         0.766803
 H        -0.048479         0.983463        -0.837179
 H        -0.645287         0.115512         0.769230
 H         2.279029         0.098064         2.234661
 H         1.646994        -1.511197         1.667473
 H         4.319887        -0.958186         1.975138
 H         3.609006        -2.273186         0.914086
 H         5.201182        -0.565674        -0.457313
 H         2.499250         1.940724        -1.073869
 H         3.341691        -0.357415        -2.425136
