19
Iteration:  3695charge 0 multiplicity 1
 C         0.162219         0.569888         0.221725
 C         1.615796         0.070417         0.148911
 C         2.165834        -0.720911         1.440535
 C         3.617281        -1.250739         0.989294
 C         4.125218        -0.365936        -0.176303
 O         4.017874         1.097317         0.163482
 C         2.742094         1.054900        -0.526064
 C         3.037267        -0.288063        -1.314113
 O         1.761033        -0.803172        -1.070440
 H        -0.070832         0.959526         1.213855
 H        -0.178275         1.286331        -0.514668
 H        -0.260834        -0.357755         0.096164
 H         2.532329         0.021223         2.130612
 H         1.552643        -1.591612         1.854105
 H         4.320688        -1.371300         1.847413
 H         3.318930        -2.205053         0.497200
 H         5.172884        -0.573053        -0.555444
 H         2.329091         2.007839        -0.790137
 H         3.249709        -0.482363        -2.348989
