19
Iteration:   539
 C         0.269494         0.680833         0.387957
 C         1.585865        -0.026205         0.090945
 C         1.999868        -0.754278         1.287114
 C         3.510212        -1.061807         1.031633
 C         4.113115        -0.345033        -0.149005
 O         3.978835         1.205225         0.019465
 C         2.775414         0.982188        -0.588253
 C         3.097629        -0.330693        -1.300939
 O         1.908309        -1.011669        -0.940302
 H         0.478754         1.354875         1.124566
 H        -0.086279         1.454440        -0.414538
 H        -0.501576        -0.121222         0.455104
 H         1.863839        -0.223808         2.269640
 H         1.386837        -1.671956         1.259045
 H         4.097794        -0.896245         2.006348
 H         3.628265        -2.214037         0.859978
 H         5.184075        -0.621138        -0.320442
 H         2.241478         1.911215        -0.901962
 H         3.314854        -0.580699        -2.394995
