19
Iteration:  4029charge 0 multiplicity 1
 C         0.225644         0.475216         0.305198
 C         1.668186         0.112175         0.088851
 C         2.210181        -0.594817         1.271570
 C         3.582296        -1.184957         1.036190
 C         4.062990        -0.381669        -0.212709
 O         3.945371         0.961807         0.202732
 C         2.755736         1.103191        -0.572345
 C         3.063130        -0.261256        -1.296040
 O         1.749744        -0.861602        -1.029476
 H         0.117050         0.947360         1.300313
 H        -0.118182         1.295535        -0.342342
 H        -0.393883        -0.398721         0.099857
 H         2.095728         0.117851         2.167502
 H         1.457375        -1.332989         1.605579
 H         4.216050        -0.995633         1.952174
 H         3.617946        -2.316233         1.070880
 H         5.066940        -0.652429        -0.520823
 H         2.413185         2.141226        -0.921686
 H         3.603352        -0.396963        -2.309083
