19
Iteration:  2621charge 0 multiplicity 1
 C         0.140124         0.554099         0.149791
 C         1.592110        -0.001248         0.125977
 C         2.258846        -0.566656         1.357241
 C         3.701366        -1.236579         0.966058
 C         4.114760        -0.387760        -0.263216
 O         3.925606         0.961503         0.285703
 C         2.692665         1.033467        -0.484368
 C         2.946012        -0.158924        -1.317377
 O         1.838007        -0.882555        -0.968562
 H        -0.016200         1.289191         1.055441
 H         0.059078         1.252270        -0.686601
 H        -0.705403        -0.228886         0.193062
 H         2.342523         0.190155         2.009036
 H         1.728698        -1.479626         1.701079
 H         4.546240        -0.843535         1.581423
 H         3.641706        -2.271490         0.874519
 H         5.162482        -0.515412        -0.792224
 H         2.506206         2.056800        -0.742789
 H         3.180048        -0.327889        -2.342477
