19
Iteration:  3987
 C         0.265386         0.621903         0.236426
 C         1.546693        -0.030226         0.158475
 C         2.148405        -0.727652         1.351617
 C         3.527636        -1.173829         0.911564
 C         4.133239        -0.328026        -0.112953
 O         4.039876         1.132658         0.116434
 C         2.702462         1.046203        -0.520155
 C         3.094196        -0.241855        -1.245936
 O         1.789587        -0.917475        -1.001531
 H         0.287844         1.415591         1.087543
 H        -0.071651         0.883676        -0.831406
 H        -0.534558        -0.115942         0.464327
 H         2.277648         0.052618         2.180533
 H         1.454899        -1.558226         1.788081
 H         4.165733        -1.516199         1.739788
 H         3.440023        -2.208443         0.397498
 H         5.064646        -0.586167        -0.672066
 H         2.327881         2.105206        -0.729307
 H         3.319681        -0.680342        -2.282956
