19
Iteration:  2626
 C         0.130174         0.556164         0.176710
 C         1.557267         0.005708         0.113169
 C         2.243846        -0.564790         1.373832
 C         3.718660        -1.176835         0.920430
 C         4.103524        -0.436879        -0.296318
 O         3.915267         0.942197         0.286854
 C         2.697712         1.050916        -0.452835
 C         2.967844        -0.192087        -1.313758
 O         1.862022        -0.885662        -0.980002
 H         0.008999         1.245881         0.967486
 H         0.095850         1.318153        -0.689458
 H        -0.632134        -0.160973         0.111488
 H         2.317542         0.294309         2.240065
 H         1.736047        -1.441347         1.780724
 H         4.501526        -0.765838         1.546581
 H         3.778775        -2.337826         0.887350
 H         5.086312        -0.604596        -0.614578
 H         2.353377         2.105457        -0.665786
 H         3.302009        -0.244963        -2.396647
