19
Iteration:  1452charge 0 multiplicity 1
 C         0.186857         0.564738         0.242993
 C         1.613017         0.144390         0.162676
 C         2.098190        -0.745295         1.350520
 C         3.570639        -1.136411         1.022530
 C         4.160288        -0.376230        -0.144861
 O         4.008129         1.125047         0.038291
 C         2.729472         1.001994        -0.563295
 C         3.046144        -0.272063        -1.282560
 O         1.849810        -0.891411        -0.944177
 H         0.199398         1.178956         1.128823
 H        -0.070943         1.053441        -0.791650
 H        -0.529689        -0.260614         0.373379
 H         1.839475        -0.248563         2.405988
 H         1.424683        -1.680934         1.339743
 H         4.132276        -1.080054         1.958566
 H         3.568968        -2.325367         0.832414
 H         5.146292        -0.779216        -0.505520
 H         2.379343         1.805652        -1.077384
 H         3.350145        -0.338463        -2.299137
