19
Iteration:  2797
 C         0.215950         0.511236         0.305969
 C         1.641394         0.058406         0.099284
 C         2.152436        -0.608771         1.360940
 C         3.604702        -1.180526         1.008212
 C         4.099836        -0.408933        -0.109731
 O         3.963084         1.017283         0.160807
 C         2.682146         1.029198        -0.578768
 C         3.128519        -0.261960        -1.360569
 O         1.767956        -0.825246        -1.083776
 H         0.226200         1.036814         1.294753
 H        -0.200768         1.243305        -0.301561
 H        -0.444726        -0.306799         0.373132
 H         2.223845         0.139022         2.136230
 H         1.439400        -1.370397         1.896812
 H         4.330587        -1.336278         1.900139
 H         3.499915        -2.243158         0.697478
 H         5.200349        -0.352871        -0.463023
 H         2.205629         1.987825        -0.780459
 H         3.539423        -0.306221        -2.370389
