19
Iteration:  2575
 C         0.142633         0.468767         0.383373
 C         1.587318         0.026425         0.073851
 C         2.149722        -0.666515         1.403330
 C         3.455608        -1.316208         0.967787
 C         4.158087        -0.297580        -0.174111
 O         4.009817         1.151474         0.123755
 C         2.725441         1.088260        -0.615041
 C         3.118261        -0.206707        -1.328116
 O         1.879081        -0.896094        -0.989473
 H         0.249756         1.365991         1.024595
 H        -0.335572         0.898740        -0.452579
 H        -0.471085        -0.355923         0.919663
 H         2.396846         0.057041         2.100160
 H         1.537849        -1.482283         1.791130
 H         4.032337        -1.700893         1.852977
 H         3.281785        -2.081622         0.226490
 H         5.226321        -0.570095        -0.367834
 H         2.310757         2.021708        -1.084058
 H         3.524326        -0.163932        -2.366226
