19
Iteration:  2293charge 0 multiplicity 1
 C         0.124279         0.434570         0.232100
 C         1.640315         0.112415         0.192366
 C         2.234436        -0.595193         1.423841
 C         3.601277        -1.311305         0.935736
 C         4.121121        -0.330439        -0.124041
 O         4.037210         1.118738         0.091779
 C         2.778964         1.088160        -0.530588
 C         3.049035        -0.251228        -1.284688
 O         1.687802        -0.863105        -1.022648
 H        -0.318474         1.098622         0.953613
 H        -0.093166         0.815163        -0.699909
 H        -0.335772        -0.587758         0.292567
 H         2.553141         0.070609         2.246762
 H         1.554417        -1.384698         1.917355
 H         4.361307        -1.582611         1.726243
 H         3.133960        -2.214797         0.329099
 H         5.184983        -0.448634        -0.411253
 H         2.390177         1.968988        -0.972417
 H         3.393688        -0.352385        -2.296218
