19
Iteration:   580charge 0 multiplicity 1
 C         0.246573         0.593050         0.214149
 C         1.618160        -0.007041         0.068863
 C         2.296289        -0.557529         1.367422
 C         3.665927        -1.200836         1.056515
 C         4.132737        -0.379575        -0.102881
 O         3.853706         1.091170         0.204950
 C         2.695068         0.962126        -0.536560
 C         3.068255        -0.349721        -1.331222
 O         1.692520        -0.873506        -1.083649
 H         0.312746         1.564254         0.806498
 H        -0.069373         0.819940        -0.888469
 H        -0.531258        -0.060969         0.731368
 H         2.237404         0.478769         1.920386
 H         1.649816        -1.217010         1.910786
 H         4.350017        -1.101124         1.894415
 H         3.598800        -2.358119         0.925437
 H         5.130512        -0.425811        -0.415489
 H         2.403629         1.862216        -1.065071
 H         3.511481        -0.546145        -2.269947
