19
Iteration:  1811charge 0 multiplicity 1
 C         0.151649         0.448714         0.227927
 C         1.607746         0.138168         0.128747
 C         2.173137        -0.555767         1.383417
 C         3.546007        -1.134322         0.911081
 C         4.156586        -0.412694        -0.223985
 O         3.981108         0.982334         0.168476
 C         2.742344         1.058067        -0.484995
 C         3.051558        -0.226713        -1.321274
 O         1.828035        -0.912663        -0.938509
 H        -0.065467         1.063800         1.061099
 H        -0.162827         0.927975        -0.773993
 H        -0.347594        -0.456478         0.496037
 H         2.244119         0.212782         2.124513
 H         1.459544        -1.356290         1.767682
 H         4.327545        -1.012884         1.679710
 H         3.320891        -2.222632         0.737676
 H         5.223415        -0.736664        -0.482204
 H         2.474478         2.060070        -1.063455
 H         3.449390        -0.152868        -2.347295
