19
Iteration:   344charge 0 multiplicity 1
 C         0.102257         0.545307         0.221782
 C         1.638813         0.136644         0.145303
 C         2.146766        -0.571121         1.373600
 C         3.531900        -1.249109         0.984931
 C         4.166395        -0.372103        -0.070247
 O         4.009171         1.141612         0.040091
 C         2.736836         0.998721        -0.579842
 C         3.107202        -0.301116        -1.297872
 O         1.823586        -0.943298        -0.933860
 H        -0.001055         1.314494         1.069596
 H        -0.356029         1.031294        -0.686213
 H        -0.498547        -0.337644         0.479997
 H         2.168334         0.015375         2.275234
 H         1.507314        -1.483893         1.476088
 H         4.095330        -1.501505         1.899962
 H         3.405529        -2.142418         0.448177
 H         5.294033        -0.466947        -0.247718
 H         2.364230         1.918671        -1.083570
 H         3.555935        -0.534626        -2.335386
