19
Iteration:  4576charge 0 multiplicity 1
 C         0.132499         0.562545         0.213173
 C         1.622026         0.126034         0.116593
 C         2.251430        -0.583390         1.401725
 C         3.559188        -1.284586         0.883846
 C         4.315644        -0.433373        -0.144546
 O         3.896206         1.142162         0.133084
 C         2.738802         1.041514        -0.573576
 C         3.022993        -0.304435        -1.296846
 O         1.775804        -0.889768        -0.865950
 H        -0.168121         0.959779         1.200462
 H         0.006859         1.333996        -0.626685
 H        -0.456547        -0.337629        -0.047515
 H         2.298609        -0.000379         2.276579
 H         1.506194        -1.402099         1.506512
 H         4.155927        -1.479273         1.770937
 H         3.326343        -2.338781         0.503620
 H         5.285179        -0.700739        -0.354763
 H         2.356153         1.993019        -1.023348
 H         3.244933        -0.323805        -2.351146
