19
Iteration:  4881
 C         0.210591         0.506484         0.240747
 C         1.601738         0.036161         0.107556
 C         2.286448        -0.649845         1.349121
 C         3.633634        -1.228146         1.051787
 C         4.086841        -0.372699        -0.149278
 O         3.968296         1.046205         0.188999
 C         2.693266         1.059774        -0.520348
 C         3.031516        -0.240209        -1.352062
 O         1.734190        -0.817627        -1.054108
 H         0.045248         1.573735         0.419616
 H        -0.141054         0.345990        -0.815437
 H        -0.292083        -0.024393         1.044250
 H         2.272298         0.152689         2.068117
 H         1.627644        -1.402205         1.880316
 H         4.325700        -1.197709         1.853331
 H         3.640834        -2.271441         0.803284
 H         5.133603        -0.443723        -0.503633
 H         2.338511         2.045476        -0.920820
 H         3.295356        -0.543919        -2.390408
