19
Iteration:    63charge 0 multiplicity 1
 C         0.224939         0.563132         0.195368
 C         1.650066         0.107356         0.144729
 C         2.143995        -0.669693         1.453062
 C         3.477432        -1.283022         1.057828
 C         4.211282        -0.419023        -0.052031
 O         3.963267         1.228091        -0.021198
 C         2.736150         0.993827        -0.633693
 C         3.116076        -0.308156        -1.216880
 O         1.764599        -0.892744        -1.020764
 H         0.201825         1.604718         0.820881
 H        -0.178486         0.757646        -0.764569
 H        -0.401865        -0.135053         0.717940
 H         2.379992         0.134327         2.248351
 H         1.352064        -1.378420         1.953112
 H         4.095784        -1.473566         1.948886
 H         3.254168        -2.314429         0.520286
 H         5.252663        -0.579821        -0.266210
 H         2.291163         1.893120        -1.298417
 H         3.406381        -0.454277        -2.266193
