19
Iteration:   939charge 0 multiplicity 1
 C         0.186626         0.480010         0.200943
 C         1.610032         0.038387         0.182110
 C         2.311481        -0.489722         1.387859
 C         3.590694        -1.318661         0.999752
 C         4.165183        -0.347070        -0.174013
 O         3.936880         1.022098         0.212373
 C         2.673370         0.974271        -0.516637
 C         3.055748        -0.220723        -1.369324
 O         1.760296        -0.841061        -1.064472
 H         0.101328         1.517438         0.646871
 H        -0.252250         0.455913        -0.802546
 H        -0.542512        -0.146469         0.696905
 H         2.454350         0.456809         1.985763
 H         1.653710        -1.032883         2.106038
 H         4.264888        -1.220296         1.955333
 H         3.342325        -2.326075         0.639235
 H         5.250732        -0.424520        -0.499085
 H         2.247422         1.999658        -0.861519
 H         3.225295        -0.349675        -2.434299
