19
Iteration:   289charge 0 multiplicity 1
 C         0.150465         0.514501         0.118009
 C         1.609192        -0.007300         0.159371
 C         2.242916        -0.531523         1.470513
 C         3.602875        -1.192703         1.106964
 C         4.113199        -0.407108        -0.112221
 O         4.035546         1.035590         0.054535
 C         2.626306         1.009166        -0.544053
 C         3.052890        -0.258671        -1.222078
 O         1.775398        -0.821396        -1.120105
 H         0.023857         1.153450         0.963789
 H        -0.052222         0.993101        -0.871204
 H        -0.442006        -0.396849         0.285298
 H         2.364946         0.383372         2.057732
 H         1.698330        -1.259423         2.095562
 H         4.241398        -1.250790         2.020322
 H         3.464304        -2.181896         0.780314
 H         5.165433        -0.622408        -0.497726
 H         2.231830         1.951426        -0.962279
 H         3.570646        -0.484032        -2.218084
