19
Iteration:  3813
 C         0.130159         0.472043         0.273354
 C         1.613176         0.186063         0.103162
 C         2.116957        -0.602186         1.338283
 C         3.507145        -1.274745         0.932345
 C         4.151827        -0.356829        -0.207414
 O         4.086927         1.053668         0.144888
 C         2.701432         1.082020        -0.471569
 C         3.054807        -0.234769        -1.326431
 O         1.860637        -0.936106        -0.928486
 H         0.142515         1.348125         0.985503
 H        -0.259354         0.924688        -0.648943
 H        -0.440220        -0.398422         0.629440
 H         2.021269         0.005962         2.163754
 H         1.426967        -1.456427         1.452412
 H         4.301840        -1.348304         1.665156
 H         3.301178        -2.263862         0.477100
 H         5.179861        -0.680457        -0.464854
 H         2.483635         2.141835        -0.732636
 H         3.398018        -0.183950        -2.359842
