19
Iteration:  2734charge 0 multiplicity 1
 C         0.226604         0.546938         0.167166
 C         1.604639         0.049907         0.207205
 C         2.274645        -0.629512         1.442738
 C         3.674223        -1.247013         1.014045
 C         4.158862        -0.408929        -0.209767
 O         3.903877         1.046216         0.203255
 C         2.678573         0.984466        -0.470764
 C         2.960990        -0.138571        -1.348837
 O         1.745903        -0.896890        -1.105579
 H         0.209913         1.553623         0.707215
 H         0.272059         0.744665        -1.047604
 H        -0.630339        -0.021890         0.529669
 H         2.518821         0.258434         1.971641
 H         1.596164        -1.286580         2.017178
 H         4.400852        -1.205673         1.789190
 H         3.436507        -2.241260         0.642090
 H         5.208882        -0.756507        -0.423981
 H         2.205839         1.958275        -0.700087
 H         3.452874        -0.055953        -2.340891
