19
Iteration:   393charge 0 multiplicity 1
 C         0.195861         0.665876         0.206138
 C         1.639577         0.096882         0.125032
 C         2.145357        -0.652520         1.317740
 C         3.670629        -1.012675         1.130707
 C         4.177018        -0.476521        -0.256564
 O         3.921131         0.944017         0.214168
 C         2.662885         1.003723        -0.510960
 C         2.976162        -0.234716        -1.358890
 O         1.832967        -1.005878        -1.013193
 H         0.178860         1.605014         0.849868
 H         0.015439         1.090640        -0.819781
 H        -0.608112        -0.125057         0.274461
 H         2.014941        -0.015197         2.252942
 H         1.687523        -1.619127         1.400900
 H         4.265089        -0.459040         1.873703
 H         4.005802        -2.166613         1.331856
 H         5.168835        -0.683285        -0.550696
 H         2.445416         1.970660        -0.972026
 H         3.165126        -0.072236        -2.365982
