19
Iteration:   995
 C         0.290709         0.631978         0.341418
 C         1.635706         0.114737         0.167249
 C         2.053256        -0.811955         1.272590
 C         3.510764        -1.047196         0.994945
 C         4.143902        -0.414165        -0.215951
 O         3.932947         1.101848         0.074059
 C         2.703143         0.958396        -0.571621
 C         3.099515        -0.210609        -1.329776
 O         1.886639        -0.988763        -0.939691
 H         0.228733         1.268371         1.254942
 H        -0.092849         1.373017        -0.482193
 H        -0.252290        -0.280881         0.714021
 H         1.829908        -0.232085         2.265101
 H         1.468184        -1.739504         1.177759
 H         4.000587        -0.519895         2.003321
 H         3.791651        -2.091915         1.007447
 H         5.223315        -0.640941        -0.331100
 H         2.262780         1.988013        -0.949978
 H         3.202776        -0.363205        -2.394120
