19
Iteration:   338
 C         0.068094         0.547176         0.262118
 C         1.649180         0.169484         0.053502
 C         2.158699        -0.528685         1.360853
 C         3.537207        -1.237603         0.961653
 C         4.144936        -0.372856        -0.099536
 O         3.960538         1.090356         0.087972
 C         2.712171         1.029254        -0.576641
 C         3.155843        -0.321872        -1.306787
 O         1.862720        -0.956722        -0.899634
 H         0.139903         1.228402         1.146688
 H        -0.237857         0.970725        -0.671557
 H        -0.427611        -0.401095         0.465986
 H         2.207720         0.093888         2.291111
 H         1.415653        -1.317702         1.556160
 H         4.214579        -1.478974         1.799555
 H         3.327238        -2.277835         0.426436
 H         5.161025        -0.633415        -0.259755
 H         2.389720         1.977630        -1.027501
 H         3.543615        -0.486024        -2.274633
