19
Iteration:  2093
 C         0.214812         0.484223         0.378608
 C         1.629663         0.081487         0.076045
 C         2.163785        -0.617792         1.322332
 C         3.557759        -1.135644         1.017258
 C         4.164220        -0.400282        -0.153995
 O         3.952027         1.100281         0.147191
 C         2.734791         0.975666        -0.559971
 C         3.041710        -0.243598        -1.347349
 O         1.791429        -0.910291        -1.034496
 H         0.147875         1.042287         1.274785
 H        -0.097793         1.144972        -0.548785
 H        -0.470435        -0.356502         0.426086
 H         2.181396         0.226480         2.000288
 H         1.460004        -1.402679         1.732051
 H         4.253314        -1.208708         1.910466
 H         3.565402        -2.243483         0.708409
 H         5.236339        -0.458619        -0.479846
 H         2.352277         2.004376        -0.855884
 H         3.411761        -0.288853        -2.441034
