19
Iteration:  1270charge 0 multiplicity 1
 C         0.165525         0.527377         0.266282
 C         1.566026         0.155341         0.130388
 C         2.200769        -0.601857         1.292309
 C         3.579428        -1.260348         0.934880
 C         4.165355        -0.364967        -0.131179
 O         3.948456         1.083931         0.093342
 C         2.726878         1.062360        -0.638628
 C         3.109858        -0.305212        -1.211819
 O         1.833249        -0.892631        -0.876618
 H         0.028051         1.076962         1.173446
 H        -0.294893         1.013958        -0.631300
 H        -0.370323        -0.440943         0.452519
 H         2.299681        -0.132453         2.228335
 H         1.395148        -1.270888         1.492950
 H         4.077200        -1.388702         1.946114
 H         3.399222        -2.121618         0.364521
 H         5.186942        -0.579453        -0.420418
 H         2.281504         2.001281        -1.169599
 H         3.345888        -0.537503        -2.280581
