19
Iteration:  4970charge 0 multiplicity 1
 C         0.120086         0.559903         0.180917
 C         1.587547         0.077220         0.133593
 C         2.230861        -0.610928         1.369544
 C         3.659622        -1.293169         0.918439
 C         4.175657        -0.341189        -0.117522
 O         3.978041         1.103239         0.091687
 C         2.683132         1.027854        -0.485131
 C         3.034235        -0.277240        -1.254009
 O         1.752065        -0.882585        -0.960803
 H        -0.096918         0.795203         1.235359
 H        -0.004204         1.524562        -0.350247
 H        -0.454241        -0.333431        -0.172571
 H         2.524800         0.073279         2.138124
 H         1.658126        -1.438459         1.949223
 H         4.299647        -1.303740         1.737714
 H         3.486610        -2.242044         0.449524
 H         5.222025        -0.581998        -0.369080
 H         2.394966         1.998253        -1.007871
 H         3.407126        -0.499939        -2.326108
