19
Iteration:  2264charge 0 multiplicity 1
 C         0.173574         0.567627         0.187123
 C         1.625729         0.058361         0.147782
 C         2.201497        -0.576801         1.406360
 C         3.618261        -1.214049         0.909187
 C         4.080455        -0.347894        -0.287960
 O         3.940419         0.978376         0.216235
 C         2.712968         1.038986        -0.432068
 C         3.004374        -0.167743        -1.386609
 O         1.856906        -0.987473        -0.936186
 H        -0.013994         1.310265         1.068674
 H        -0.095256         0.936316        -0.851435
 H        -0.501892        -0.290634         0.317080
 H         2.556926         0.306268         2.032522
 H         1.674521        -1.293307         1.970789
 H         4.419519        -1.017586         1.629559
 H         3.476752        -2.249885         0.792273
 H         5.120657        -0.516837        -0.541938
 H         2.309622         2.064529        -0.646993
 H         3.309259        -0.184813        -2.446968
