19
Iteration:  2667charge 0 multiplicity 1
 C         0.210192         0.461478         0.253360
 C         1.623490         0.019194         0.138341
 C         2.169985        -0.722788         1.367689
 C         3.580694        -1.238024         1.005130
 C         4.106227        -0.399845        -0.080920
 O         4.005271         1.161835         0.056169
 C         2.728799         1.133388        -0.571461
 C         3.092701        -0.250803        -1.278141
 O         1.733442        -0.829705        -0.989819
 H         0.175077         1.035941         1.262568
 H        -0.059365         1.271914        -0.560741
 H        -0.574653        -0.290723         0.381386
 H         2.357505        -0.003829         2.084009
 H         1.421188        -1.504102         1.577139
 H         4.214004        -1.391516         1.858883
 H         3.491146        -2.088091         0.371583
 H         5.144352        -0.690592        -0.451521
 H         2.486613         2.106160        -0.986437
 H         3.395834        -0.556469        -2.279036
