19
Iteration:   414charge 0 multiplicity 1
 C         0.156189         0.646178         0.229956
 C         1.584278         0.064760         0.047989
 C         2.177317        -0.611642         1.317169
 C         3.630516        -1.136158         1.018889
 C         4.136795        -0.350251        -0.167008
 O         3.900289         1.045605         0.227675
 C         2.739833         0.981761        -0.614280
 C         3.087440        -0.348095        -1.309378
 O         1.815163        -0.929182        -0.964468
 H         0.373487         1.357917         1.096623
 H        -0.288153         1.109599        -0.612678
 H        -0.432864        -0.207040         0.543112
 H         2.233813         0.014486         2.235260
 H         1.523159        -1.483448         1.506179
 H         4.333392        -0.881948         1.824304
 H         3.661436        -2.293474         0.953888
 H         5.134217        -0.573739        -0.486507
 H         2.442936         1.984445        -0.952505
 H         3.436144        -0.621090        -2.272788
