19
Iteration:  3269
 C         0.231383         0.581553         0.262634
 C         1.603694        -0.002360         0.070510
 C         2.246007        -0.638070         1.337669
 C         3.581671        -1.248662         1.012175
 C         4.124282        -0.409117        -0.111084
 O         3.927110         1.086521         0.160030
 C         2.690947         1.018282        -0.494862
 C         3.051471        -0.191930        -1.325297
 O         1.793551        -0.882221        -1.092465
 H         0.468522         1.384958         1.155417
 H        -0.262544         1.033200        -0.666059
 H        -0.509534        -0.049478         0.800871
 H         2.323640         0.058258         2.175725
 H         1.607800        -1.516568         1.750313
 H         4.189936        -1.258419         1.954867
 H         3.280978        -2.296537         0.758533
 H         5.115521        -0.469415        -0.679979
 H         2.307766         2.013713        -0.687011
 H         3.609217        -0.258095        -2.344012
