19
Iteration:  2902
 C         0.172587         0.578630         0.232301
 C         1.615308         0.008658         0.100847
 C         2.233819        -0.620462         1.418114
 C         3.606866        -1.198412         1.002227
 C         4.150619        -0.431929        -0.214944
 O         3.973171         1.048341         0.274884
 C         2.673812         0.967105        -0.539819
 C         3.090107        -0.172623        -1.368761
 O         1.734568        -0.873216        -1.050352
 H         0.057862         1.477284         0.881175
 H        -0.224339         0.699004        -0.887475
 H        -0.493834        -0.231310         0.746864
 H         2.498028         0.221021         2.113503
 H         1.573737        -1.328193         1.827330
 H         4.310691        -1.023644         1.767200
 H         3.523119        -2.250421         0.770916
 H         5.124234        -0.550731        -0.600516
 H         2.399161         1.932641        -1.022383
 H         3.404948        -0.094407        -2.418388
