19
Iteration:    74charge 0 multiplicity 1
 C         0.197174         0.635319         0.282747
 C         1.596783         0.052704         0.108360
 C         2.124024        -0.589534         1.400765
 C         3.506534        -1.291832         1.026780
 C         4.087296        -0.333041        -0.029981
 O         3.978924         1.184734        -0.006253
 C         2.725042         0.976466        -0.684040
 C         3.132544        -0.345936        -1.237526
 O         1.879314        -0.923249        -0.969977
 H         0.237509         1.532078         1.106851
 H        -0.225987         0.974828        -0.622951
 H        -0.429468        -0.139544         0.691811
 H         2.188373         0.003246         2.372148
 H         1.403578        -1.499728         1.543210
 H         4.166442        -1.561275         1.857660
 H         3.365321        -2.265221         0.362042
 H         5.104353        -0.600595        -0.223245
 H         2.399525         1.902411        -1.366626
 H         3.645123        -0.546175        -2.181689
