19
Iteration:  3229
 C         0.139189         0.580369         0.146521
 C         1.592700         0.086117         0.168779
 C         2.175908        -0.676230         1.329550
 C         3.592173        -1.231938         0.899644
 C         4.157374        -0.415972        -0.261205
 O         4.031005         1.101396         0.183877
 C         2.722024         1.103708        -0.469260
 C         3.010738        -0.250635        -1.255642
 O         1.824999        -0.893907        -0.878520
 H         0.185680         1.293225         0.875676
 H        -0.222545         0.905569        -0.851399
 H        -0.505009        -0.260531         0.368813
 H         2.070679        -0.162554         2.326679
 H         1.678032        -1.616180         1.283211
 H         4.291811        -1.180293         1.719406
 H         3.516431        -2.263693         0.497131
 H         5.148500        -0.754077        -0.415830
 H         2.306428         2.146778        -0.767393
 H         3.173441        -0.538737        -2.288104
