19
Iteration:  3049charge 0 multiplicity 1
 C         0.189704         0.483962         0.360759
 C         1.648867         0.077087         0.103892
 C         2.188691        -0.627589         1.408937
 C         3.473601        -1.272747         0.939138
 C         4.093257        -0.304598        -0.046253
 O         3.991671         1.101266         0.074418
 C         2.773692         1.011810        -0.587981
 C         3.084841        -0.219953        -1.337887
 O         1.817393        -0.875022        -1.033795
 H         0.197528         1.398910         1.065928
 H        -0.317771         0.942276        -0.437088
 H        -0.425471        -0.357435         0.604077
 H         2.214609         0.031065         2.229919
 H         1.458018        -1.504773         1.570536
 H         4.183379        -1.573801         1.780395
 H         3.243134        -2.121578         0.276875
 H         5.162989        -0.548913        -0.197170
 H         2.464855         1.920934        -0.961871
 H         3.461964        -0.349502        -2.344133
