19
Iteration:  3581
 C         0.258297         0.621290         0.218273
 C         1.568034         0.024716         0.149222
 C         2.173743        -0.635568         1.391211
 C         3.640567        -1.194356         0.937261
 C         4.123994        -0.444402        -0.268604
 O         3.882305         0.966154         0.216660
 C         2.691255         0.991902        -0.426506
 C         3.066983        -0.147768        -1.348324
 O         1.828315        -0.904338        -1.041170
 H         0.258795         1.503311         0.856081
 H        -0.145592         1.056422        -0.706636
 H        -0.492899        -0.119320         0.643745
 H         2.362652         0.148169         2.184712
 H         1.478113        -1.416246         1.686138
 H         4.336102        -0.707245         1.645512
 H         3.824625        -2.290928         0.853800
 H         5.150424        -0.580445        -0.531231
 H         2.205030         2.035677        -0.520004
 H         3.391868         0.009432        -2.424348
