19
Iteration:   437charge 0 multiplicity 1
 C         0.244923         0.531695         0.277358
 C         1.622469         0.033680         0.172976
 C         2.175739        -0.565730         1.393512
 C         3.500995        -1.304012         1.030067
 C         4.160446        -0.316320         0.008583
 O         3.951588         1.180668         0.023785
 C         2.730232         0.965967        -0.649282
 C         3.106038        -0.243444        -1.260351
 O         1.763510        -0.928673        -1.072529
 H         0.227929         1.327823         1.021650
 H         0.021505         0.817153        -0.759729
 H        -0.362401        -0.385485         0.475487
 H         2.532176         0.287083         2.073675
 H         1.339605        -1.070849         1.848864
 H         4.151226        -1.739145         1.795672
 H         3.098174        -2.239595         0.429279
 H         5.160757        -0.548584        -0.160850
 H         2.335689         1.854283        -1.117258
 H         3.579261        -0.324497        -2.176751
