19
Iteration:  4444
 C         0.265951         0.641479         0.187362
 C         1.571069        -0.037401         0.131854
 C         2.219443        -0.656564         1.354889
 C         3.620192        -1.250804         1.029723
 C         4.175533        -0.369681        -0.118595
 O         3.960372         1.115031         0.154997
 C         2.667522         1.000582        -0.520512
 C         2.986652        -0.224639        -1.313045
 O         1.756183        -0.920274        -1.040989
 H         0.175840         1.316033         1.096629
 H        -0.088616         1.160831        -0.759660
 H        -0.463325        -0.155500         0.349474
 H         2.414625         0.243298         1.972225
 H         1.665594        -1.318034         2.017955
 H         4.346649        -1.187316         1.880763
 H         3.531419        -2.286004         0.668774
 H         5.155971        -0.569026        -0.419408
 H         2.336042         1.920323        -1.028944
 H         3.397457        -0.251409        -2.295518
