19
Iteration:  2479charge 0 multiplicity 1
 C         0.155435         0.520990         0.286313
 C         1.650930         0.107037         0.149200
 C         2.139666        -0.699753         1.384223
 C         3.508895        -1.210790         0.914601
 C         4.152357        -0.288962        -0.199102
 O         4.003997         1.110999         0.195183
 C         2.733393         1.055472        -0.559698
 C         3.007324        -0.220443        -1.417911
 O         1.912367        -0.982404        -0.930546
 H         0.017757         1.065623         1.329070
 H        -0.189030         1.224693        -0.436369
 H        -0.476328        -0.444021         0.308619
 H         2.319473        -0.007144         2.172510
 H         1.302122        -1.487967         1.481812
 H         4.188707        -1.204543         1.768455
 H         3.340688        -2.179704         0.582719
 H         5.190077        -0.711980        -0.557264
 H         2.380187         2.017704        -0.770618
 H         3.113423        -0.262697        -2.475281
