19
Iteration:   664charge 0 multiplicity 1
 C         0.228416         0.594180         0.262427
 C         1.616839        -0.011529         0.055554
 C         2.262340        -0.538141         1.361466
 C         3.646635        -1.204871         1.095300
 C         4.157882        -0.435332        -0.096565
 O         3.906589         1.060558         0.128535
 C         2.620153         0.952782        -0.559527
 C         3.052115        -0.286107        -1.306533
 O         1.774912        -0.845866        -1.104733
 H         0.124212         0.983290         1.345684
 H         0.046870         1.321844        -0.436659
 H        -0.581251        -0.100862         0.183614
 H         2.290784         0.347866         1.921670
 H         1.588871        -1.248284         1.941491
 H         4.146165        -0.874635         2.021062
 H         3.599483        -2.239704         0.943776
 H         5.190051        -0.677548        -0.440721
 H         2.261625         1.893404        -0.978322
 H         3.431614        -0.467415        -2.307708
