19
Iteration:  1730charge 0 multiplicity 1
 C         0.182540         0.530489         0.326755
 C         1.600317         0.117424         0.091589
 C         2.165485        -0.569259         1.286824
 C         3.482329        -1.250287         0.967552
 C         4.195785        -0.343190        -0.117550
 O         3.990049         1.040582         0.113888
 C         2.654488         1.066530        -0.589194
 C         3.062802        -0.250794        -1.321877
 O         1.902941        -0.964824        -0.937408
 H         0.261147         1.314371         1.153499
 H        -0.300343         1.044896        -0.450373
 H        -0.517962        -0.295017         0.574486
 H         2.070278         0.134469         2.212939
 H         1.437512        -1.404680         1.498235
 H         4.200937        -1.164377         1.831370
 H         3.443182        -2.288893         0.781676
 H         5.167469        -0.552346        -0.443544
 H         2.308583         1.862306        -1.069774
 H         3.538003        -0.247282        -2.315944
