19
Iteration:  4265charge 0 multiplicity 1
 C         0.080675         0.540559         0.310188
 C         1.553429         0.142588         0.172573
 C         2.145060        -0.611146         1.384595
 C         3.506380        -1.183503         0.887520
 C         4.146583        -0.370977        -0.183514
 O         4.004143         1.028506         0.144144
 C         2.814410         1.001759        -0.574380
 C         3.106766        -0.269757        -1.341841
 O         1.870594        -0.879813        -0.988005
 H        -0.047744         1.209825         1.163560
 H        -0.431988         0.865230        -0.582407
 H        -0.508337        -0.424062         0.387605
 H         2.286907         0.090793         2.244833
 H         1.462117        -1.399491         1.706777
 H         4.189581        -1.127403         1.800386
 H         3.496567        -2.225412         0.727400
 H         5.226133        -0.623691        -0.351097
 H         2.497721         1.997689        -0.862511
 H         3.613687        -0.505400        -2.270686
