19
Iteration:  3192
 C         0.257040         0.492054         0.238006
 C         1.620684        -0.024927         0.084711
 C         2.298620        -0.545359         1.467617
 C         3.566857        -1.177944         0.964064
 C         4.113464        -0.481931        -0.183984
 O         3.921697         1.088136         0.257818
 C         2.661135         1.008422        -0.471517
 C         3.039343        -0.263807        -1.356107
 O         1.765037        -0.804757        -1.167706
 H         0.101598         1.158748         1.146563
 H         0.059115         1.208312        -0.527806
 H        -0.545844        -0.218760         0.370282
 H         2.528139         0.272803         2.137039
 H         1.529787        -1.135101         2.059412
 H         4.442809        -1.242920         1.662867
 H         3.288970        -2.250622         0.841042
 H         5.199913        -0.720063        -0.428508
 H         2.321492         1.926594        -0.858902
 H         3.413933        -0.383030        -2.434495
