19
Iteration:   192
 C         0.207003         0.541034         0.259695
 C         1.612048         0.056252         0.044899
 C         2.253096        -0.462603         1.363156
 C         3.513259        -1.220019         1.064138
 C         4.153351        -0.403402        -0.112650
 O         3.898106         1.086481         0.218872
 C         2.647234         0.946061        -0.642854
 C         3.135073        -0.277508        -1.307223
 O         1.805915        -0.927898        -1.046105
 H         0.144401         1.420288         0.967682
 H        -0.116094         0.848434        -0.707173
 H        -0.374516        -0.288445         0.624283
 H         2.563111         0.389446         1.946842
 H         1.598111        -1.099366         1.992038
 H         4.263494        -1.268463         1.922029
 H         3.309400        -2.282902         0.732834
 H         5.198915        -0.548496        -0.450038
 H         2.453277         1.883255        -1.133582
 H         3.455321        -0.521982        -2.362071
