19
Iteration:  4821charge 0 multiplicity 1
 C         0.272551         0.569880         0.216687
 C         1.601044         0.070314         0.096898
 C         2.276759        -0.575607         1.401516
 C         3.630075        -1.262180         0.993283
 C         4.132724        -0.408642        -0.200632
 O         3.925695         1.123752         0.191726
 C         2.628880         0.969467        -0.512246
 C         3.039699        -0.266035        -1.256430
 O         1.722385        -0.899756        -1.061448
 H         0.158574         1.176757         1.173440
 H        -0.124801         1.038961        -0.670638
 H        -0.352748        -0.376978         0.177421
 H         2.533682         0.214017         2.153144
 H         1.679071        -1.381227         1.800167
 H         4.304688        -1.132902         1.900774
 H         3.428485        -2.354324         0.714123
 H         5.205840        -0.360965        -0.466584
 H         2.430907         1.868483        -1.099715
 H         3.396780        -0.213906        -2.307940
