19
Iteration:  1820charge 0 multiplicity 1
 C         0.133381         0.425312         0.257805
 C         1.676401         0.170232         0.111879
 C         2.178913        -0.541916         1.316767
 C         3.566213        -1.222417         0.955032
 C         4.125272        -0.411001        -0.204590
 O         4.023041         1.029110         0.167448
 C         2.714054         1.050006        -0.564225
 C         3.028673        -0.237909        -1.297193
 O         1.844671        -0.857096        -0.905103
 H        -0.103960         1.205779         0.945761
 H        -0.425150         0.716744        -0.752946
 H        -0.277279        -0.525747         0.435000
 H         2.270147         0.175417         2.170263
 H         1.489897        -1.427042         1.658034
 H         4.046242        -1.376178         1.920964
 H         3.259350        -2.201541         0.552090
 H         5.184368        -0.486096        -0.392199
 H         2.352831         2.012513        -0.926763
 H         3.270301        -0.400794        -2.382898
