19
Iteration:  2555
 C         0.173870         0.501905         0.364782
 C         1.599895         0.085274         0.118288
 C         2.225892        -0.554312         1.271746
 C         3.577057        -1.219690         0.923734
 C         4.116206        -0.369251        -0.171007
 O         3.928841         1.030945         0.211961
 C         2.702763         1.028129        -0.476096
 C         3.059243        -0.213792        -1.347329
 O         1.872545        -0.931483        -1.078097
 H         0.148397         1.441718         1.081963
 H        -0.424372         0.821247        -0.473579
 H        -0.265944        -0.451707         0.896966
 H         2.317805         0.154236         2.024164
 H         1.378577        -1.256493         1.563346
 H         4.160370        -1.061472         1.829238
 H         3.412079        -2.217258         0.726243
 H         5.249051        -0.558790        -0.415285
 H         2.363347         1.959927        -0.888880
 H         3.398713        -0.295993        -2.372004
