19
Iteration:  2488charge 0 multiplicity 1
 C         0.188606         0.515348         0.226775
 C         1.611101         0.063333         0.131337
 C         2.119958        -0.705767         1.403822
 C         3.501425        -1.179036         0.875228
 C         4.124278        -0.295742        -0.219291
 O         4.037976         1.126437         0.154010
 C         2.759567         0.991321        -0.483433
 C         2.994824        -0.205832        -1.367203
 O         1.891144        -0.958379        -0.887347
 H         0.230761         1.063855         1.233221
 H        -0.110966         1.313159        -0.501339
 H        -0.652926        -0.327103         0.258218
 H         2.087428        -0.238923         2.329709
 H         1.501407        -1.607410         1.629319
 H         4.222726        -1.144432         1.684169
 H         3.511055        -2.123292         0.506776
 H         5.226017        -0.362800        -0.559850
 H         2.452833         1.989425        -0.842475
 H         3.091106        -0.226525        -2.480779
