19
Iteration:  1149
 C         0.254837         0.709946         0.373196
 C         1.640177         0.004548         0.095688
 C         2.137363        -0.697777         1.338374
 C         3.623280        -1.068584         1.031028
 C         4.120427        -0.320211        -0.158752
 O         3.896434         1.040428         0.206192
 C         2.671813         0.954671        -0.598959
 C         3.044176        -0.269116        -1.387990
 O         1.858691        -1.027630        -1.063536
 H         0.668096         1.374127         1.027859
 H        -0.089958         1.273364        -0.530248
 H        -0.641153         0.193752         0.661588
 H         1.819949        -0.019479         2.097573
 H         1.578587        -1.596193         1.452586
 H         4.232818        -0.867997         1.989507
 H         3.674682        -2.102163         0.853556
 H         5.128569        -0.537271        -0.452443
 H         2.309001         1.973956        -0.980673
 H         3.349101        -0.438981        -2.387604
