19
Iteration:  3629charge 0 multiplicity 1
 C         0.171380         0.521602         0.245205
 C         1.601088         0.114626         0.183152
 C         2.250435        -0.724149         1.385149
 C         3.510628        -1.358498         0.932692
 C         4.166523        -0.328651        -0.140484
 O         4.039029         1.091903         0.129505
 C         2.628695         1.030693        -0.557814
 C         3.095863        -0.228799        -1.246955
 O         1.790241        -0.760896        -1.008490
 H        -0.126963         1.365921         0.841598
 H        -0.151648         0.841768        -0.697649
 H        -0.340906        -0.324372         0.496834
 H         2.413601         0.074001         2.065803
 H         1.446600        -1.391479         1.781605
 H         4.134678        -1.657420         1.794974
 H         3.387705        -2.203699         0.233307
 H         5.228481        -0.595151        -0.368837
 H         2.234669         1.840988        -1.117436
 H         3.430414        -0.332703        -2.246233
