19
Iteration:  3124
 C         0.208063         0.521341         0.151409
 C         1.622559         0.074207         0.161418
 C         2.201842        -0.699334         1.393615
 C         3.597411        -1.221864         0.980568
 C         4.107213        -0.402699        -0.173968
 O         4.036006         1.090121         0.121189
 C         2.696964         1.052482        -0.457459
 C         2.981089        -0.185516        -1.328981
 O         1.755654        -0.894683        -1.005708
 H         0.101864         1.306999         0.948147
 H         0.131012         1.110866        -0.721006
 H        -0.494608        -0.268076         0.377615
 H         2.360608        -0.005733         2.194032
 H         1.600835        -1.449170         1.897927
 H         4.269647        -1.120799         1.851879
 H         3.719568        -2.220829         0.648694
 H         5.133135        -0.748177        -0.325866
 H         2.297354         1.980727        -0.754104
 H         3.247101        -0.148136        -2.359612
