19
Iteration:  4359
 C         0.208252         0.560554         0.232649
 C         1.642557         0.035284         0.189121
 C         2.211548        -0.605284         1.408633
 C         3.484397        -1.219277         0.967127
 C         4.135585        -0.340379        -0.122983
 O         3.976092         1.097246         0.187158
 C         2.785508         1.009079        -0.618016
 C         3.032664        -0.257273        -1.333540
 O         1.785773        -0.916569        -1.032044
 H         0.128741         1.244873         1.038150
 H        -0.098756         1.044063        -0.703329
 H        -0.503012        -0.233964         0.362993
 H         2.360678         0.073772         2.198514
 H         1.584311        -1.458638         1.795033
 H         4.176742        -1.347322         1.728664
 H         3.316886        -2.258379         0.580965
 H         5.111505        -0.529918        -0.504845
 H         2.404615         1.970960        -0.957443
 H         3.340465        -0.358814        -2.367096
