19
Iteration:  2549
 C         0.188373         0.491146         0.355936
 C         1.625202         0.086210         0.108596
 C         2.235372        -0.556808         1.261188
 C         3.584061        -1.168058         0.989851
 C         4.113432        -0.355884        -0.258335
 O         3.907410         0.989288         0.257298
 C         2.687314         1.003870        -0.477296
 C         3.056056        -0.257010        -1.323173
 O         1.835810        -0.879535        -1.083356
 H         0.156094         1.327808         0.998735
 H        -0.258714         0.804132        -0.629651
 H        -0.372466        -0.264008         0.795768
 H         2.399933         0.258294         2.091901
 H         1.660354        -1.416712         1.600827
 H         4.191316        -1.065422         1.908936
 H         3.540870        -2.286295         0.644441
 H         5.113786        -0.523691        -0.534061
 H         2.301750         1.970698        -0.877959
 H         3.512730        -0.256435        -2.337064
