19
Iteration:  4660
 C         0.138678         0.533793         0.276539
 C         1.624644         0.043130         0.153960
 C         2.158645        -0.684109         1.337441
 C         3.591822        -1.227331         0.979826
 C         4.182777        -0.343335        -0.128955
 O         4.040771         1.179653         0.130443
 C         2.827329         0.960148        -0.603831
 C         3.001236        -0.326031        -1.277469
 O         1.742490        -0.790525        -0.976925
 H        -0.070759         1.549430         0.660294
 H        -0.301099         0.522698        -0.709073
 H        -0.456152        -0.178076         0.793850
 H         2.063632         0.009734         2.251300
 H         1.536440        -1.536931         1.499089
 H         4.135014        -1.485739         1.909598
 H         3.369295        -2.118853         0.419256
 H         5.216536        -0.579889        -0.488401
 H         2.372638         1.829634        -1.055950
 H         3.323609        -0.475941        -2.256059
