19
Iteration:   718charge 0 multiplicity 1
 C         0.200485         0.617100         0.221742
 C         1.656389         0.067673         0.104933
 C         2.155156        -0.761535         1.362293
 C         3.642842        -1.262380         1.002738
 C         4.140658        -0.308411        -0.072642
 O         3.945800         1.126178         0.041917
 C         2.722734         1.035888        -0.636569
 C         3.078238        -0.280984        -1.237128
 O         1.728297        -0.887616        -0.911101
 H         0.120560         1.525172         1.019431
 H        -0.073311         1.019331        -0.692095
 H        -0.573939        -0.067138         0.484179
 H         2.123023        -0.151542         2.247206
 H         1.439844        -1.671622         1.482448
 H         4.192869        -1.304220         2.045924
 H         3.705862        -2.234557         0.535583
 H         5.184446        -0.599832        -0.423133
 H         2.531157         1.994297        -1.119326
 H         3.421001        -0.384176        -2.289537
