19
Iteration:  4512
 C         0.205685         0.573828         0.241165
 C         1.624784         0.035172         0.100392
 C         2.247994        -0.585768         1.387462
 C         3.643752        -1.083125         1.019062
 C         4.154863        -0.402681        -0.147731
 O         3.933435         0.947327         0.236487
 C         2.737412         0.964488        -0.530592
 C         3.022481        -0.282592        -1.272523
 O         1.709787        -0.815166        -1.166101
 H         0.015703         1.493490         0.812613
 H        -0.278243         0.594831        -0.787521
 H        -0.460312        -0.183676         0.773212
 H         2.391809         0.187024         2.088641
 H         1.710905        -1.421997         1.994175
 H         4.309527        -0.998643         1.823139
 H         3.660408        -2.161098         0.697273
 H         5.149704        -0.562640        -0.579508
 H         2.350993         1.938317        -0.849095
 H         3.228866        -0.405221        -2.341077
