19
Iteration:  4874
 C         0.214819         0.495842         0.267614
 C         1.617074         0.038728         0.138977
 C         2.216209        -0.617437         1.325657
 C         3.620829        -1.208013         0.998777
 C         4.106728        -0.444548        -0.144994
 O         3.957500         1.098235         0.165997
 C         2.730744         1.022478        -0.540318
 C         3.000526        -0.208872        -1.320581
 O         1.778909        -0.851390        -1.008241
 H         0.184337         1.563049         0.391907
 H        -0.170692         0.289204        -0.702386
 H        -0.391712        -0.118122         0.946098
 H         2.323898         0.163712         2.106683
 H         1.489802        -1.409219         1.666407
 H         4.221552        -1.141239         1.948387
 H         3.547674        -2.264173         0.516267
 H         5.130466        -0.574888        -0.525795
 H         2.389056         2.088694        -0.863907
 H         3.425379        -0.255176        -2.379507
