19
Iteration:  2588
 C         0.212134         0.481911         0.286507
 C         1.633775         0.019352         0.218280
 C         2.202025        -0.656664         1.390346
 C         3.495424        -1.278992         0.868258
 C         4.119625        -0.306476        -0.092045
 O         3.971111         1.169939         0.078816
 C         2.711830         1.008401        -0.547370
 C         3.096908        -0.240766        -1.260541
 O         1.836468        -0.820338        -1.039909
 H         0.143543         1.263812         1.172592
 H        -0.176407         0.751150        -0.687803
 H        -0.561997        -0.340102         0.641734
 H         2.260245         0.004019         2.163324
 H         1.415509        -1.394241         1.733189
 H         4.209116        -1.667628         1.619556
 H         3.165076        -2.142313         0.404021
 H         5.219083        -0.502500        -0.457815
 H         2.366843         1.913041        -1.015833
 H         3.398573        -0.561833        -2.230295
