19
Iteration:  3585
 C         0.247882         0.615252         0.211051
 C         1.589092         0.034007         0.158554
 C         2.155774        -0.648523         1.383467
 C         3.634192        -1.168506         0.920476
 C         4.115845        -0.417909        -0.250827
 O         3.913020         0.951730         0.226699
 C         2.654342         1.002417        -0.441975
 C         3.073775        -0.141199        -1.359093
 O         1.834561        -0.919755        -1.020028
 H         0.260640         1.526610         0.823218
 H        -0.134776         1.030224        -0.690458
 H        -0.453086        -0.040603         0.613496
 H         2.407299         0.014244         2.179041
 H         1.421962        -1.443082         1.762229
 H         4.391126        -0.800031         1.667061
 H         3.754282        -2.267969         0.832561
 H         5.149385        -0.632967        -0.667066
 H         2.251067         2.004649        -0.577336
 H         3.353803         0.009723        -2.381962
