19
Iteration:  4164
 C         0.212134         0.552697         0.299862
 C         1.611743         0.051459         0.079365
 C         2.239838        -0.654014         1.408313
 C         3.615576        -1.185606         1.055428
 C         4.085066        -0.409652        -0.182517
 O         3.917222         1.029329         0.142338
 C         2.739983         1.023603        -0.551121
 C         3.106341        -0.227985        -1.327382
 O         1.768213        -0.825608        -1.049153
 H         0.062663         1.426132         0.879713
 H        -0.177501         0.859032        -0.690091
 H        -0.307292        -0.309904         0.674435
 H         2.118614         0.014368         2.207815
 H         1.445939        -1.450367         1.587681
 H         4.210630        -1.077994         1.918164
 H         3.481751        -2.249259         0.708349
 H         5.131134        -0.681042        -0.371438
 H         2.464250         1.878915        -1.095024
 H         3.292381        -0.245329        -2.367507
