19
Iteration:  4271charge 0 multiplicity 1
 C         0.075188         0.524282         0.320660
 C         1.591335         0.166611         0.163977
 C         2.107014        -0.647313         1.374818
 C         3.545257        -1.208249         0.922394
 C         4.107585        -0.377082        -0.130749
 O         4.057608         1.071882         0.107089
 C         2.791940         1.024297        -0.624959
 C         3.125603        -0.234000        -1.318251
 O         1.858591        -0.919140        -0.980811
 H        -0.101827         1.253374         1.121167
 H        -0.345907         0.873586        -0.671392
 H        -0.546066        -0.327406         0.565458
 H         2.255924         0.048675         2.183160
 H         1.339230        -1.434177         1.643313
 H         4.169827        -1.249651         1.776626
 H         3.479593        -2.335994         0.589137
 H         5.123866        -0.694670        -0.263668
 H         2.437575         2.065748        -0.752992
 H         3.426089        -0.394024        -2.381529
