19
Iteration:  4299
 C         0.295605         0.556844         0.186633
 C         1.641525         0.012032         0.154088
 C         2.119454        -0.695671         1.370794
 C         3.570944        -1.221082         0.982399
 C         4.125922        -0.348455        -0.128275
 O         3.978234         1.117060         0.062083
 C         2.723538         0.965666        -0.502449
 C         3.062402        -0.240713        -1.243805
 O         1.745760        -0.836517        -1.035425
 H         0.261896         1.533788         0.770672
 H        -0.027589         0.841206        -0.810859
 H        -0.302407        -0.061757         0.911062
 H         2.175998         0.040782         2.244048
 H         1.491340        -1.529808         1.637002
 H         4.114657        -1.158708         1.986871
 H         3.436546        -2.226050         0.673194
 H         5.184639        -0.588849        -0.406718
 H         2.263661         1.962237        -0.636712
 H         3.361283        -0.415347        -2.306542
