19
Iteration:   358
 C         0.207317         0.565892         0.172279
 C         1.563911         0.014228         0.186242
 C         2.128019        -0.759987         1.402974
 C         3.542669        -1.161373         1.062369
 C         4.213251        -0.297570        -0.080626
 O         4.070852         1.179390         0.014649
 C         2.768188         1.006048        -0.612909
 C         3.001019        -0.317883        -1.217134
 O         1.754355        -0.876490        -1.015799
 H         0.026909         1.439162         0.984803
 H         0.135218         0.836393        -0.819062
 H        -0.449645        -0.240907         0.367324
 H         2.198819        -0.039128         2.225573
 H         1.398079        -1.526099         1.802998
 H         4.208871        -1.232102         1.951365
 H         3.430639        -2.254734         0.661129
 H         5.187955        -0.722229        -0.360449
 H         2.347621         1.911792        -1.135274
 H         3.239494        -0.376614        -2.292850
