19
Iteration:    47charge 0 multiplicity 1
 C         0.209484         0.546658         0.117712
 C         1.640704         0.030658         0.152520
 C         2.210975        -0.513445         1.392681
 C         3.566511        -1.214201         1.062947
 C         4.116140        -0.391649        -0.112335
 O         4.033095         1.093212         0.129447
 C         2.722033         0.978008        -0.523791
 C         2.999545        -0.307949        -1.336104
 O         1.735407        -0.874239        -0.997979
 H         0.047581         1.520580         0.438982
 H        -0.049594         0.434200        -0.997950
 H        -0.473278        -0.168830         0.678322
 H         2.381677         0.270368         2.098174
 H         1.565557        -1.209311         1.844633
 H         4.278354        -1.227489         1.954279
 H         3.448811        -2.200439         0.708599
 H         5.172382        -0.687419        -0.332288
 H         2.376852         1.888196        -0.844057
 H         3.386962        -0.430221        -2.366843
