19
Iteration:  1330
 C         0.245324         0.585845         0.208535
 C         1.617267        -0.032278         0.135618
 C         2.215565        -0.669709         1.390200
 C         3.702716        -1.123062         1.209948
 C         4.150249        -0.398985        -0.132682
 O         3.983453         1.068493         0.100092
 C         2.677239         0.957184        -0.509539
 C         2.979474        -0.193483        -1.355163
 O         1.659039        -0.880960        -1.160850
 H         0.303454         1.519373         0.826011
 H        -0.019163         0.865575        -0.820223
 H        -0.462642        -0.179416         0.514719
 H         2.318326         0.181464         2.149965
 H         1.561204        -1.552899         1.635101
 H         4.301428        -1.028695         2.067626
 H         3.845648        -2.247354         1.070474
 H         5.215240        -0.526861        -0.418720
 H         2.363274         1.904116        -0.671436
 H         3.249703        -0.215981        -2.423601
