19
Iteration:  1151charge 0 multiplicity 1
 C         0.249344         0.719007         0.360594
 C         1.652974        -0.011717         0.101123
 C         2.114918        -0.705299         1.336278
 C         3.612888        -1.102047         1.052386
 C         4.130248        -0.303102        -0.157018
 O         3.906592         1.062111         0.180524
 C         2.669180         0.980075        -0.601119
 C         3.045152        -0.275021        -1.380871
 O         1.853402        -1.031182        -1.065663
 H         0.681790         1.388030         1.069178
 H        -0.039579         1.310161        -0.515698
 H        -0.655253         0.135240         0.714430
 H         1.815191        -0.049139         2.221451
 H         1.575527        -1.658039         1.555917
 H         4.228297        -0.831853         1.981727
 H         3.712101        -2.161346         0.751707
 H         5.132042        -0.518332        -0.422502
 H         2.354400         1.936364        -0.961818
 H         3.354872        -0.447774        -2.445385
