19
Iteration:   583
 C         0.242535         0.557075         0.202886
 C         1.619944        -0.027037         0.079693
 C         2.312816        -0.534225         1.405473
 C         3.651925        -1.182761         1.032935
 C         4.104319        -0.374105        -0.108116
 O         3.891615         1.075096         0.219290
 C         2.687000         0.978247        -0.535080
 C         3.070635        -0.330991        -1.322992
 O         1.674772        -0.870723        -1.089549
 H         0.404731         1.506497         0.612068
 H        -0.056217         0.832259        -0.885619
 H        -0.546922        -0.076246         0.672563
 H         2.243921         0.480214         1.839023
 H         1.683698        -1.209915         1.988117
 H         4.335373        -1.127211         1.938814
 H         3.537637        -2.322392         0.903707
 H         5.162616        -0.496514        -0.446015
 H         2.374118         1.890916        -1.077149
 H         3.537976        -0.557194        -2.350164
