19
Iteration:  1142charge 0 multiplicity 1
 C         0.289161         0.689736         0.352373
 C         1.579294         0.027479         0.064567
 C         2.199414        -0.660996         1.296360
 C         3.638087        -1.013513         1.022882
 C         4.114593        -0.378756        -0.184933
 O         3.858828         1.007167         0.253899
 C         2.667987         0.933543        -0.583461
 C         3.046632        -0.275120        -1.360795
 O         1.860096        -0.999393        -1.052098
 H         0.498756         1.535687         1.126610
 H        -0.101529         1.184740        -0.530743
 H        -0.622358         0.093398         0.753316
 H         2.012635         0.109359         2.148014
 H         1.495928        -1.558849         1.286446
 H         4.313759        -0.868634         1.865012
 H         3.613044        -2.164084         1.030896
 H         5.146375        -0.567900        -0.485900
 H         2.289330         1.825611        -0.942768
 H         3.444868        -0.362466        -2.438090
