19
Iteration:  4036
 C         0.244630         0.456893         0.292709
 C         1.655728         0.098914         0.043548
 C         2.213864        -0.577459         1.366192
 C         3.577798        -1.141979         0.992324
 C         4.053746        -0.395120        -0.174181
 O         3.971125         0.961915         0.270937
 C         2.767746         1.077504        -0.541757
 C         3.027916        -0.263914        -1.358702
 O         1.736692        -0.874204        -1.061892
 H         0.168644         0.815075         1.290649
 H         0.023100         1.211674        -0.431175
 H        -0.535990        -0.301331         0.078151
 H         2.199203         0.243158         2.053278
 H         1.512545        -1.317228         1.641803
 H         4.343361        -0.799386         1.720387
 H         3.593801        -2.186856         1.037667
 H         5.069380        -0.607241        -0.492770
 H         2.629263         2.031299        -0.973231
 H         3.189192        -0.326426        -2.383521
