19
Iteration:  1902
 C         0.195286         0.599480         0.176876
 C         1.632955         0.089649         0.168596
 C         2.194417        -0.707627         1.393006
 C         3.655132        -1.176590         0.975154
 C         4.137120        -0.391432        -0.230542
 O         3.937458         1.061672         0.173691
 C         2.679325         0.978599        -0.527797
 C         3.057586        -0.252964        -1.304919
 O         1.759191        -0.881834        -0.982128
 H         0.010433         1.373671         0.967592
 H         0.120399         1.120804        -0.693215
 H        -0.693086        -0.061198         0.302988
 H         2.159488        -0.168687         2.344375
 H         1.643851        -1.579847         1.449029
 H         4.336510        -1.011937         1.826841
 H         3.715795        -2.270289         0.859510
 H         5.214283        -0.340923        -0.423965
 H         2.360674         2.059352        -0.863215
 H         3.377617        -0.441600        -2.311556
