19
Iteration:  3923charge 0 multiplicity 1
 C         0.193792         0.506229         0.269734
 C         1.597828         0.082868         0.069053
 C         2.188594        -0.601508         1.331475
 C         3.558384        -1.329168         1.011214
 C         4.213989        -0.374389        -0.121702
 O         4.076819         1.080334         0.167221
 C         2.692172         1.058626        -0.516804
 C         3.009707        -0.179257        -1.289339
 O         1.718965        -0.867958        -1.046352
 H        -0.041067         1.364913         0.951282
 H        -0.189105         0.608606        -0.805594
 H        -0.441364        -0.315362         0.609323
 H         2.381613         0.200528         2.008118
 H         1.590971        -1.443989         1.784046
 H         4.035033        -1.308113         1.974080
 H         3.385560        -2.352019         0.559279
 H         5.248859        -0.772973        -0.430743
 H         2.425643         2.042148        -0.970251
 H         3.436302        -0.150270        -2.329459
