19
Iteration:  1411charge 0 multiplicity 1
 C         0.203805         0.545198         0.139489
 C         1.613549        -0.006820         0.138800
 C         2.304852        -0.459673         1.421512
 C         3.648288        -1.237413         1.082276
 C         4.145855        -0.450023        -0.184881
 O         3.931093         1.032325         0.197036
 C         2.630134         0.959798        -0.527153
 C         3.020695        -0.218364        -1.305596
 O         1.751747        -0.881728        -1.103590
 H        -0.085753         1.068050         1.031314
 H         0.002748         1.171239        -0.749799
 H        -0.615868        -0.204432         0.173169
 H         2.551127         0.365958         2.071135
 H         1.716878        -1.068561         2.106132
 H         4.436367        -1.141864         1.869687
 H         3.434089        -2.209325         0.732955
 H         5.215652        -0.477605        -0.371829
 H         2.346945         1.989944        -0.861233
 H         3.279962        -0.273495        -2.345028
