19
Iteration:   423
 C         0.207759         0.583363         0.244006
 C         1.654300         0.093837         0.043124
 C         2.217539        -0.601507         1.343727
 C         3.568319        -1.221469         1.047049
 C         4.146625        -0.372674        -0.073724
 O         3.926794         1.124336         0.138191
 C         2.663529         1.013811        -0.591175
 C         3.072289        -0.378505        -1.269422
 O         1.807926        -0.908017        -1.027682
 H         0.157026         1.436698         1.049499
 H        -0.257995         1.089355        -0.526895
 H        -0.481232        -0.152444         0.557399
 H         2.230218         0.132273         2.137317
 H         1.629443        -1.506580         1.684658
 H         4.151924        -1.293877         1.972199
 H         3.512506        -2.167369         0.541915
 H         5.226804        -0.514356        -0.342935
 H         2.324941         1.932032        -1.128303
 H         3.403741        -0.590219        -2.310600
