19
Iteration:  3644
 C         0.135670         0.483016         0.311538
 C         1.639213         0.043352         0.125516
 C         2.217252        -0.544816         1.392537
 C         3.559773        -1.281455         0.920291
 C         4.107004        -0.412055        -0.125685
 O         3.977365         1.046333         0.216936
 C         2.789164         1.058863        -0.554027
 C         3.042965        -0.183585        -1.338776
 O         1.781684        -0.845322        -1.094078
 H         0.165138         1.122567         1.216795
 H        -0.168952         0.965796        -0.696320
 H        -0.564204        -0.398865         0.523684
 H         2.422409         0.130872         2.302789
 H         1.605167        -1.377287         1.687828
 H         4.274462        -1.406029         1.736801
 H         3.161468        -2.204824         0.551188
 H         5.151712        -0.625441        -0.449515
 H         2.543100         2.088596        -0.886352
 H         3.389401        -0.240567        -2.403412
