19
Iteration:  1425charge 0 multiplicity 1
 C         0.150219         0.566119         0.155581
 C         1.592574         0.118775         0.114371
 C         2.242893        -0.601034         1.377168
 C         3.657098        -1.131261         0.999733
 C         4.148832        -0.368509        -0.154555
 O         3.935467         0.970993         0.200532
 C         2.751614         1.020036        -0.494615
 C         2.958415        -0.266351        -1.345742
 O         1.786384        -0.951554        -0.991058
 H         0.077767         1.188447         1.107883
 H        -0.025900         1.167070        -0.683739
 H        -0.443850        -0.354909         0.047833
 H         2.359602         0.242165         1.994378
 H         1.549491        -1.318056         1.769181
 H         4.327347        -0.947366         1.914250
 H         3.737500        -2.193655         0.970030
 H         5.068721        -0.705956        -0.607777
 H         2.428029         2.090767        -0.919291
 H         3.365096        -0.310326        -2.437365
