19
Iteration:  2597
 C         0.234765         0.500154         0.247210
 C         1.657311         0.096194         0.155308
 C         2.208933        -0.639703         1.416096
 C         3.557183        -1.278948         0.878733
 C         4.159134        -0.362028        -0.098139
 O         3.948212         1.149811         0.122952
 C         2.681714         1.015090        -0.516395
 C         3.029656        -0.256380        -1.269490
 O         1.756821        -0.860837        -1.036796
 H        -0.037120         1.286713         0.956015
 H        -0.004567         0.884786        -0.697590
 H        -0.370064        -0.451566         0.445267
 H         2.419507         0.034546         2.184441
 H         1.633127        -1.495264         1.711824
 H         4.367381        -1.404247         1.644542
 H         3.450828        -2.191392         0.284836
 H         5.247876        -0.601993        -0.242936
 H         2.251991         1.999206        -0.795044
 H         3.429493        -0.342394        -2.301546
