19
Iteration:  2589
 C         0.217373         0.482367         0.282351
 C         1.640629         0.027601         0.215948
 C         2.200957        -0.652462         1.390732
 C         3.500884        -1.277358         0.862887
 C         4.124066        -0.316027        -0.083897
 O         3.967300         1.170601         0.080311
 C         2.706782         1.004675        -0.544399
 C         3.087813        -0.242645        -1.257626
 O         1.828384        -0.821888        -1.043117
 H         0.119871         1.264927         1.181583
 H        -0.164540         0.750303        -0.729818
 H        -0.546280        -0.333147         0.615385
 H         2.278258         0.035225         2.194785
 H         1.426462        -1.429257         1.732784
 H         4.244441        -1.630633         1.584204
 H         3.202059        -2.162790         0.394012
 H         5.227695        -0.512275        -0.436944
 H         2.369745         1.919439        -0.976301
 H         3.389849        -0.556984        -2.220325
