19
Iteration:   850charge 0 multiplicity 1
 C         0.213657         0.661838         0.208729
 C         1.624060        -0.005137         0.120721
 C         2.156080        -0.683536         1.309700
 C         3.721541        -1.041435         1.061421
 C         4.149179        -0.426708        -0.222765
 O         3.907884         0.967224         0.155647
 C         2.703559         0.965167        -0.472225
 C         2.962483        -0.229427        -1.387772
 O         1.796251        -0.902712        -0.977206
 H         0.132576         0.801614         1.308769
 H         0.090288         1.508448        -0.324906
 H        -0.512282        -0.024388        -0.039218
 H         1.987592        -0.177631         2.231859
 H         1.662203        -1.683705         1.499652
 H         4.146356        -0.309603         1.751702
 H         3.812555        -2.040608         1.102269
 H         5.255696        -0.531538        -0.340376
 H         2.548870         2.009086        -0.715424
 H         3.256608        -0.252955        -2.419632
