19
Iteration:  3527charge 0 multiplicity 1
 C         0.149263         0.474804         0.347882
 C         1.601002         0.151317         0.152445
 C         2.177068        -0.625099         1.282774
 C         3.502154        -1.252274         0.967618
 C         4.137234        -0.415414        -0.168991
 O         4.009804         1.139922         0.172485
 C         2.747801         1.031655        -0.630597
 C         3.100531        -0.231187        -1.340575
 O         1.865695        -0.871023        -0.945831
 H         0.131348         0.813803         1.374934
 H        -0.131201         1.072047        -0.491892
 H        -0.618462        -0.342701         0.364193
 H         2.137379        -0.017833         2.247654
 H         1.403926        -1.422739         1.442926
 H         4.058359        -1.555150         1.904459
 H         3.297827        -2.243826         0.395630
 H         5.118605        -0.676136        -0.560143
 H         2.218320         2.085288        -0.876665
 H         3.420633        -0.383784        -2.425270
