19
Iteration:  2438
 C         0.167078         0.457266         0.329925
 C         1.578947        -0.022300         0.127601
 C         2.287280        -0.567831         1.372648
 C         3.638801        -1.222116         1.028147
 C         4.190549        -0.395992        -0.125819
 O         3.969784         1.065615         0.297663
 C         2.732927         1.018140        -0.557784
 C         3.036026        -0.227178        -1.403574
 O         1.657075        -0.815010        -1.210121
 H        -0.113649         1.252655         1.049706
 H        -0.173308         0.904514        -0.590531
 H        -0.340499        -0.439368         0.460676
 H         2.488119         0.509733         1.804956
 H         1.703607        -1.114374         2.194884
 H         4.312853        -1.216752         1.931099
 H         3.553344        -2.278062         0.449459
 H         5.253741        -0.349202        -0.363095
 H         2.347471         1.984976        -0.885293
 H         3.371331        -0.516900        -2.381439
