19
Iteration:  2157charge 0 multiplicity 1
 C         0.173333         0.495885         0.200430
 C         1.628298         0.006808         0.100674
 C         2.293721        -0.535716         1.450517
 C         3.683667        -1.173015         0.989870
 C         4.080405        -0.392121        -0.245333
 O         3.948069         0.991045         0.202956
 C         2.672224         1.054509        -0.459993
 C         3.008529        -0.182450        -1.311847
 O         1.747592        -0.911747        -1.055219
 H         0.016368         1.296673         0.813118
 H         0.027003         1.032558        -0.794914
 H        -0.446212        -0.315496         0.314955
 H         2.683935         0.132810         2.171954
 H         1.792491        -1.217700         2.090652
 H         4.396901        -1.206968         1.839594
 H         3.436715        -2.189595         0.698694
 H         5.046548        -0.809007        -0.587507
 H         2.126761         2.038398        -0.819597
 H         3.319870        -0.092541        -2.454036
