19
Iteration:  1198charge 0 multiplicity 1
 C         0.113773         0.521909         0.174876
 C         1.611682         0.142940         0.142239
 C         2.215750        -0.670255         1.423065
 C         3.633573        -1.179348         0.960734
 C         4.171870        -0.338205        -0.164246
 O         4.018483         1.062813         0.137294
 C         2.762158         1.031009        -0.586466
 C         3.006790        -0.268185        -1.299968
 O         1.750361        -0.899471        -0.938186
 H        -0.043945         1.320776         1.024435
 H        -0.219126         0.853640        -0.831171
 H        -0.404902        -0.480903         0.326776
 H         2.108828         0.024869         2.367794
 H         1.396179        -1.471067         1.715734
 H         4.231557        -1.182895         1.868804
 H         3.404192        -2.276531         0.598606
 H         5.240910        -0.509318        -0.461199
 H         2.546037         2.024061        -0.898942
 H         3.271896        -0.561990        -2.370571
