19
Iteration:  2925
 C         0.242932         0.521003         0.314687
 C         1.624120         0.100839         0.073972
 C         2.237226        -0.546857         1.254673
 C         3.612473        -1.170661         0.993094
 C         4.102697        -0.423801        -0.122643
 O         3.876123         0.960691         0.249108
 C         2.677104         1.048945        -0.553163
 C         3.023489        -0.245828        -1.349155
 O         1.844915        -0.901857        -1.062161
 H         0.337174         1.342169         1.143725
 H        -0.320723         0.952753        -0.664521
 H        -0.467246        -0.187349         0.957620
 H         2.415516         0.188926         2.095725
 H         1.441348        -1.274173         1.423310
 H         4.240557        -1.031643         1.885756
 H         3.536621        -2.199644         0.644950
 H         5.050904        -0.523028        -0.587085
 H         2.499004         2.144078        -0.619923
 H         3.504373        -0.534168        -2.284290
