19
Iteration:  2743charge 0 multiplicity 1
 C         0.199703         0.588368         0.115496
 C         1.602981        -0.013211         0.214809
 C         2.317267        -0.637966         1.446609
 C         3.623455        -1.223225         0.991100
 C         4.196843        -0.400372        -0.170802
 O         3.947732         1.025369         0.143368
 C         2.685140         1.030280        -0.454411
 C         2.977662        -0.174149        -1.320009
 O         1.738219        -0.865658        -1.046881
 H        -0.039784         1.583290         0.634857
 H        -0.145258         0.744882        -0.988143
 H        -0.516312        -0.178562         0.402209
 H         2.384285         0.095448         2.215747
 H         1.770787        -1.590048         1.794178
 H         4.240338        -1.374283         1.936169
 H         3.319320        -2.218481         0.630085
 H         5.314254        -0.373752        -0.566578
 H         2.299195         2.006796        -0.756363
 H         3.178486        -0.061203        -2.389172
