19
Iteration:  1646
 C         0.211170         0.569426         0.221673
 C         1.671703         0.046053         0.131053
 C         2.115099        -0.646204         1.409767
 C         3.493206        -1.207909         1.032733
 C         4.184446        -0.311417        -0.113073
 O         4.003712         1.128222         0.084490
 C         2.687469         0.996469        -0.546593
 C         3.062032        -0.239768        -1.353706
 O         1.825496        -0.979877        -0.955744
 H         0.159446         1.349335         0.993275
 H         0.001647         1.036088        -0.809299
 H        -0.483670        -0.161464         0.524388
 H         2.025873         0.067994         2.157824
 H         1.540101        -1.520479         1.731322
 H         4.286678        -1.418005         1.738447
 H         3.340473        -2.067553         0.347963
 H         5.178106        -0.583886        -0.512224
 H         2.160443         2.013687        -0.924467
 H         3.442423        -0.341227        -2.358495
