19
Iteration:  3447charge 0 multiplicity 1
 C         0.180327         0.560608         0.279374
 C         1.584384         0.041079         0.153121
 C         2.150434        -0.629656         1.313727
 C         3.570602        -1.212382         0.934323
 C         4.138956        -0.384497        -0.240841
 O         3.962624         1.056121         0.178193
 C         2.723214         1.030745        -0.515759
 C         3.098531        -0.186159        -1.301577
 O         1.828014        -0.921116        -0.942144
 H         0.142922         1.423902         0.852813
 H        -0.020919         0.888014        -0.749011
 H        -0.371125        -0.311577         0.608276
 H         2.070527         0.049863         2.177009
 H         1.489019        -1.427367         1.503751
 H         4.371187        -1.231857         1.641076
 H         3.486889        -2.222827         0.586548
 H         5.147847        -0.507683        -0.297036
 H         2.444677         1.998021        -0.889171
 H         3.248644        -0.228212        -2.348324
