19
Iteration:  4698charge 0 multiplicity 1
 C         0.215182         0.605755         0.239195
 C         1.592194        -0.011276         0.126011
 C         2.204670        -0.548692         1.374432
 C         3.560861        -1.212540         0.970704
 C         4.081447        -0.390639        -0.244047
 O         3.934242         1.083845         0.290496
 C         2.692761         0.972498        -0.498453
 C         3.057889        -0.209427        -1.380187
 O         1.880735        -0.949354        -1.011656
 H         0.367569         1.579602         0.661057
 H        -0.166290         0.536886        -0.787330
 H        -0.451676         0.072719         0.974913
 H         2.282454         0.317867         1.943466
 H         1.564707        -1.264023         1.967530
 H         4.474440        -1.233085         1.551405
 H         3.453134        -2.334078         0.733927
 H         4.970237        -0.704993        -0.739340
 H         2.563082         1.995798        -0.960649
 H         3.059504        -0.360727        -2.524615
