19
Iteration:     6
 C         0.169430         0.577992         0.177548
 C         1.623599         0.086941         0.102705
 C         2.205500        -0.508303         1.379859
 C         3.561233        -1.183551         1.006878
 C         4.129210        -0.458485        -0.152852
 O         3.939720         1.041788         0.171281
 C         2.732932         0.964018        -0.537536
 C         3.070931        -0.245690        -1.336231
 O         1.847652        -0.929916        -0.948499
 H        -0.025427         1.407649         0.888187
 H        -0.132548         0.983388        -0.845727
 H        -0.536794        -0.264813         0.428611
 H         2.328045         0.341653         2.072797
 H         1.426702        -1.193532         1.759174
 H         4.258841        -1.057818         1.909258
 H         3.497560        -2.281719         0.853188
 H         5.158277        -0.664128        -0.520172
 H         2.376324         1.895677        -1.032514
 H         3.157755        -0.525991        -2.430785
