19
Iteration:  2944
 C         0.214617         0.567989         0.333765
 C         1.579444         0.073359         0.106534
 C         2.147591        -0.661269         1.380336
 C         3.553979        -1.280309         0.964177
 C         4.176824        -0.338357        -0.166036
 O         3.954491         1.121621         0.166293
 C         2.749088         0.983251        -0.587397
 C         3.104920        -0.243711        -1.298818
 O         1.801160        -0.893789        -1.059045
 H         0.099839         1.149757         1.144925
 H        -0.265222         1.080132        -0.512063
 H        -0.429438        -0.158408         0.765857
 H         2.158828         0.145982         2.145066
 H         1.480465        -1.387156         1.707692
 H         4.246069        -1.228199         1.718956
 H         3.405334        -2.300986         0.652077
 H         5.235684        -0.566145        -0.221161
 H         2.386151         1.864511        -1.195399
 H         3.293840        -0.227224        -2.388574
