19
Iteration:  2139charge 0 multiplicity 1
 C         0.185161         0.511904         0.100496
 C         1.639471         0.007334         0.249145
 C         2.338196        -0.542740         1.409048
 C         3.607589        -1.275902         0.911961
 C         4.130315        -0.337647        -0.184737
 O         3.954810         1.094842         0.159671
 C         2.663364         1.003143        -0.480840
 C         2.988721        -0.247013        -1.293557
 O         1.749563        -0.856867        -0.975166
 H        -0.114023         1.104356         1.040776
 H        -0.005732         1.023510        -0.873134
 H        -0.451426        -0.447763         0.193619
 H         2.490455         0.344520         2.074905
 H         1.573205        -1.244991         1.922839
 H         4.367967        -1.471674         1.700364
 H         3.452254        -2.343508         0.479754
 H         5.203463        -0.528487        -0.473598
 H         2.468207         1.957408        -0.873259
 H         3.127094        -0.398116        -2.350460
