19
Iteration:  4743charge 0 multiplicity 1
 C         0.146345         0.510014         0.210696
 C         1.671052         0.025470         0.126816
 C         2.152739        -0.643136         1.463255
 C         3.593007        -1.291485         1.014301
 C         4.114015        -0.381764        -0.175578
 O         4.056045         1.160591         0.104424
 C         2.711780         1.047904        -0.661629
 C         3.058481        -0.219547        -1.273812
 O         1.747419        -0.856709        -0.945162
 H         0.022219         1.013882         1.182241
 H        -0.046443         1.216216        -0.585837
 H        -0.641889        -0.307686         0.273193
 H         2.276335         0.071527         2.239976
 H         1.468480        -1.447751         1.811314
 H         4.320104        -1.493517         1.818451
 H         3.535841        -2.307258         0.530650
 H         5.151490        -0.447426        -0.470352
 H         2.317626         1.975590        -1.122147
 H         3.390746        -0.471011        -2.346008
