19
Iteration:  1534
 C         0.174910         0.497669         0.155887
 C         1.615152         0.098925         0.111685
 C         2.229395        -0.557688         1.427758
 C         3.527770        -1.242303         0.905247
 C         4.132814        -0.364057        -0.160569
 O         3.983592         1.085057         0.142295
 C         2.717586         0.978228        -0.509337
 C         3.075663        -0.233432        -1.242754
 O         1.813561        -0.911278        -0.943150
 H        -0.072041         1.475719         0.702318
 H        -0.071496         0.744800        -0.835428
 H        -0.466488        -0.344970         0.525105
 H         2.312466         0.347548         2.021067
 H         1.645221        -1.289304         2.020547
 H         4.256242        -1.370291         1.782256
 H         3.186518        -2.153496         0.489749
 H         5.115659        -0.695618        -0.413495
 H         2.416615         1.993266        -1.059435
 H         3.263705        -0.387647        -2.342039
