19
Iteration:   128
 C         0.198410         0.572198         0.086552
 C         1.542441        -0.006630         0.148016
 C         2.324900        -0.615764         1.483361
 C         3.705380        -1.087564         1.178144
 C         4.101142        -0.431863        -0.097722
 O         3.951119         0.999722         0.090898
 C         2.709223         1.064207        -0.565514
 C         2.991848        -0.312930        -1.327510
 O         1.719745        -0.864641        -1.114569
 H        -0.124989         1.356520         0.991809
 H         0.095802         1.169649        -0.792370
 H        -0.580950        -0.172034        -0.026498
 H         2.410835         0.290069         2.118250
 H         1.631629        -1.340373         2.013176
 H         4.293768        -0.965585         2.131340
 H         3.763456        -2.259225         1.020155
 H         5.079579        -0.756432        -0.415057
 H         2.377512         2.109973        -0.896287
 H         3.452134        -0.549699        -2.307698
