19
Iteration:  1967charge 0 multiplicity 1
 C         0.153672         0.476351         0.284604
 C         1.601409         0.116470         0.112362
 C         2.261346        -0.458422         1.309062
 C         3.600926        -1.213954         1.008823
 C         4.117247        -0.386933        -0.230927
 O         3.901278         0.941188         0.261373
 C         2.728257         1.054345        -0.533509
 C         3.083929        -0.245470        -1.397088
 O         1.813600        -0.913087        -1.020551
 H         0.162213         1.071408         1.254628
 H        -0.206966         1.085609        -0.454838
 H        -0.473528        -0.470004         0.346772
 H         2.465701         0.200894         2.161799
 H         1.472737        -1.126337         1.630024
 H         4.375473        -1.062800         1.746719
 H         3.455061        -2.296551         0.907654
 H         5.209032        -0.576820        -0.336670
 H         2.261690         2.056667        -0.995624
 H         3.295172        -0.216375        -2.427584
