19
Iteration:  4419
 C         0.149496         0.517900         0.191673
 C         1.619242         0.101771         0.091960
 C         2.316806        -0.462154         1.413307
 C         3.634865        -1.182774         1.020888
 C         4.095483        -0.434814        -0.275996
 O         3.921588         0.914332         0.327965
 C         2.702134         1.048977        -0.573528
 C         3.031871        -0.275127        -1.373519
 O         1.793770        -0.838990        -1.019011
 H        -0.154343         0.985937         1.193592
 H        -0.283738         1.122660        -0.624201
 H        -0.390362        -0.489558         0.211083
 H         2.246187         0.295677         2.300218
 H         1.691789        -1.329388         1.681102
 H         4.527526        -1.020019         1.832733
 H         3.364590        -2.249749         0.913286
 H         5.120517        -0.646715        -0.749375
 H         2.395511         2.087739        -0.888167
 H         3.454212        -0.499854        -2.421284
