19
Iteration:    82
 C         0.195574         0.646488         0.339352
 C         1.594167         0.098036         0.066267
 C         2.148356        -0.623025         1.326935
 C         3.504407        -1.194338         0.990905
 C         4.069425        -0.294076        -0.032610
 O         3.983521         1.110866         0.074643
 C         2.724735         0.983947        -0.708780
 C         3.138250        -0.352030        -1.275592
 O         1.905647        -1.003178        -0.929767
 H         0.297927         1.422509         1.157772
 H        -0.236188         1.239769        -0.543662
 H        -0.601280        -0.092493         0.647461
 H         2.025869         0.075680         2.124300
 H         1.356989        -1.344521         1.429353
 H         4.211259        -1.448138         1.894033
 H         3.284539        -2.161324         0.537388
 H         5.130823        -0.534884        -0.284711
 H         2.307683         1.851317        -1.125457
 H         3.520433        -0.683384        -2.305575
