19
Iteration:  2128
 C         0.128635         0.499677         0.206278
 C         1.602532         0.096113         0.143323
 C         2.238875        -0.604875         1.424508
 C         3.611017        -1.286070         0.912359
 C         4.155669        -0.353687        -0.195586
 O         3.954465         1.124009         0.153452
 C         2.763055         1.042324        -0.535471
 C         2.988272        -0.231958        -1.344794
 O         1.822329        -0.924079        -0.888469
 H        -0.268961         1.227203         0.996249
 H        -0.003719         1.089940        -0.759598
 H        -0.546595        -0.426990         0.058028
 H         2.674663         0.115020         2.149467
 H         1.576600        -1.330902         2.039541
 H         4.270294        -1.470372         1.786371
 H         3.255286        -2.210001         0.320505
 H         5.231763        -0.547145        -0.489652
 H         2.294759         1.894787        -0.934556
 H         3.249545        -0.248163        -2.399675
