19
Iteration:  4439
 C         0.253621         0.595387         0.187600
 C         1.596864         0.033307         0.146648
 C         2.226553        -0.620960         1.335623
 C         3.632485        -1.248657         1.025499
 C         4.157466        -0.408243        -0.099048
 O         3.885614         1.043921         0.156391
 C         2.675038         1.001394        -0.507911
 C         3.009556        -0.212221        -1.322140
 O         1.757306        -0.894943        -1.039764
 H         0.069114         1.250912         1.038953
 H         0.087196         1.174238        -0.703595
 H        -0.539933        -0.179556         0.347417
 H         2.648911         0.312777         1.894833
 H         1.596160        -1.256651         1.985085
 H         4.462764        -1.002983         1.807147
 H         3.721292        -2.325748         0.758422
 H         5.270976        -0.540434        -0.429665
 H         2.437561         1.960098        -1.006203
 H         3.347606        -0.234065        -2.425588
