19
Iteration:  1650
 C         0.182805         0.549347         0.214229
 C         1.648970         0.035405         0.120752
 C         2.143253        -0.622789         1.407503
 C         3.483015        -1.198189         1.005151
 C         4.173283        -0.308484        -0.129527
 O         4.029868         1.083089         0.124380
 C         2.683113         1.073285        -0.550029
 C         3.048237        -0.277414        -1.366943
 O         1.851983        -0.982814        -0.924347
 H         0.127834         1.444828         0.848818
 H         0.020639         1.025965        -0.781868
 H        -0.567719        -0.198107         0.613321
 H         2.066031         0.043684         2.328035
 H         1.539677        -1.509971         1.640602
 H         4.207651        -1.275674         1.822195
 H         3.343873        -2.017335         0.216355
 H         5.202670        -0.559135        -0.581966
 H         2.201739         1.908743        -0.971054
 H         3.417626        -0.255862        -2.415396
