19
Iteration:   910
 C         0.166088         0.415987         0.303205
 C         1.619902         0.139187         0.141987
 C         2.190839        -0.433566         1.344915
 C         3.398818        -1.284912         0.850131
 C         4.122112        -0.327586        -0.170062
 O         4.012496         1.075847         0.179739
 C         2.725368         1.068640        -0.544901
 C         3.084005        -0.257162        -1.342337
 O         1.928036        -0.973233        -0.918657
 H         0.089799         1.132113         1.114220
 H        -0.412124         0.848110        -0.601354
 H        -0.322476        -0.538505         0.688418
 H         2.379808         0.320100         2.176945
 H         1.506451        -1.199412         1.669097
 H         4.101810        -1.544498         1.627824
 H         3.115447        -2.286432         0.510951
 H         5.105302        -0.636826        -0.469017
 H         2.380324         1.929765        -1.132213
 H         3.346114        -0.281720        -2.426430
