19
Iteration:  2334
 C         0.221594         0.560092         0.369991
 C         1.630175         0.076240         0.059389
 C         2.240597        -0.505532         1.336170
 C         3.608269        -1.181948         1.000741
 C         4.135952        -0.394377        -0.203626
 O         3.899358         0.984790         0.229841
 C         2.667243         0.985805        -0.525932
 C         3.046294        -0.169319        -1.339681
 O         1.815863        -0.970207        -1.093522
 H         0.166864         1.022362         1.315224
 H        -0.370073         1.037800        -0.468069
 H        -0.345946        -0.412725         0.473624
 H         2.138100         0.214967         2.092414
 H         1.479786        -1.300681         1.488004
 H         4.292763        -1.114306         1.846155
 H         3.620028        -2.183697         0.728295
 H         5.133934        -0.701556        -0.627175
 H         2.382321         2.072276        -0.656011
 H         3.473606        -0.094649        -2.413432
