19
Iteration:  1739
 C         0.164126         0.593841         0.306650
 C         1.617644         0.125980         0.056244
 C         2.118172        -0.617241         1.316852
 C         3.588987        -1.180326         0.924911
 C         4.134987        -0.381990        -0.144383
 O         3.920200         1.059074         0.124555
 C         2.753719         1.078279        -0.622892
 C         3.077340        -0.265425        -1.279544
 O         1.892251        -0.998767        -0.888854
 H         0.132549         1.126395         1.317473
 H        -0.251391         1.161525        -0.463681
 H        -0.491471        -0.338574         0.535209
 H         2.187205        -0.083328         2.344465
 H         1.474624        -1.474209         1.387251
 H         4.037301        -1.265222         1.945190
 H         3.498506        -2.232587         0.529273
 H         5.214995        -0.517117        -0.342049
 H         2.406145         2.005688        -1.031509
 H         3.353348        -0.355941        -2.361189
