19
Iteration:  3840charge 0 multiplicity 1
 C         0.221624         0.549693         0.133586
 C         1.615558         0.019047         0.160106
 C         2.224677        -0.635472         1.436070
 C         3.624364        -1.237218         0.953353
 C         4.058430        -0.400021        -0.181223
 O         3.958209         1.072887         0.201311
 C         2.719933         0.950555        -0.469569
 C         2.986875        -0.216785        -1.341410
 O         1.782538        -0.828595        -1.006356
 H         0.152674         1.184145         0.991729
 H         0.262490         1.326710        -0.643685
 H        -0.620367        -0.142606        -0.001671
 H         2.329430         0.287020         2.169940
 H         1.625625        -1.402912         1.984400
 H         4.519782        -1.214701         1.745019
 H         3.621859        -2.315470         0.574267
 H         5.082682        -0.601262        -0.638095
 H         2.398995         1.892695        -0.898411
 H         3.368685        -0.054770        -2.362051
