19
Iteration:  1451charge 0 multiplicity 1
 C         0.186070         0.560195         0.241713
 C         1.603227         0.142903         0.155630
 C         2.100042        -0.741928         1.353178
 C         3.568343        -1.133040         1.019862
 C         4.166382        -0.379940        -0.151706
 O         4.010241         1.126937         0.049707
 C         2.723128         0.998397        -0.563180
 C         3.041896        -0.275144        -1.286270
 O         1.850885        -0.888742        -0.934770
 H         0.205859         1.203622         1.125083
 H        -0.058614         1.064443        -0.777782
 H        -0.504542        -0.270575         0.340726
 H         1.857774        -0.254240         2.395049
 H         1.427181        -1.658041         1.297985
 H         4.188898        -1.077555         1.904673
 H         3.537287        -2.324772         0.881961
 H         5.136339        -0.788048        -0.525637
 H         2.401627         1.818172        -1.075986
 H         3.382465        -0.345226        -2.307667
