19
Iteration:  4490charge 0 multiplicity 1
 C         0.194075         0.592230         0.281487
 C         1.677700         0.122352         0.054239
 C         2.179364        -0.676995         1.291343
 C         3.578880        -1.305737         1.069292
 C         4.130211        -0.377921        -0.167772
 O         3.949021         1.105475         0.186697
 C         2.693106         1.059905        -0.601282
 C         3.057476        -0.252063        -1.342807
 O         1.829862        -0.913594        -0.924082
 H         0.178929         1.571856         0.787858
 H        -0.321312         0.695325        -0.726473
 H        -0.530712        -0.030877         0.857852
 H         2.203892        -0.201063         2.226309
 H         1.352686        -1.443853         1.426607
 H         4.268275        -1.115914         1.835369
 H         3.649306        -2.378949         0.803164
 H         5.080175        -0.576672        -0.627978
 H         2.354939         1.999224        -1.051564
 H         3.193113        -0.300876        -2.415669
