19
Iteration:  2635charge 0 multiplicity 1
 C         0.160615         0.583793         0.181715
 C         1.562645         0.059908         0.157729
 C         2.241672        -0.612109         1.411885
 C         3.681174        -1.085339         0.919448
 C         4.107016        -0.466854        -0.328100
 O         3.922537         0.948183         0.244460
 C         2.662675         1.046087        -0.391242
 C         3.085547        -0.196740        -1.361903
 O         1.815411        -0.939367        -1.021484
 H         0.007627         1.088379         1.209159
 H        -0.070768         1.234818        -0.803579
 H        -0.589423        -0.178436         0.054891
 H         2.396636         0.144538         2.280101
 H         1.551611        -1.333208         1.900566
 H         4.295724        -0.866615         1.734956
 H         3.827216        -2.177575         0.866772
 H         5.172449        -0.732547        -0.527381
 H         2.256899         2.037711        -0.612283
 H         3.343893        -0.082683        -2.418478
