19
Iteration:  1890
 C         0.217285         0.656282         0.198231
 C         1.619608         0.032741         0.113864
 C         2.227576        -0.678302         1.319878
 C         3.649115        -1.152810         0.979270
 C         4.085799        -0.363713        -0.218295
 O         3.911288         1.017322         0.299406
 C         2.686685         1.013519        -0.532389
 C         2.977898        -0.233870        -1.363684
 O         1.863764        -0.943090        -0.951304
 H         0.260293         1.424779         0.994244
 H        -0.103964         1.050322        -0.703975
 H        -0.466959        -0.214006         0.390891
 H         2.265621         0.049497         2.122640
 H         1.542266        -1.424882         1.653786
 H         4.348147        -0.791812         1.746537
 H         3.660253        -2.247789         0.804850
 H         4.929350        -0.876891        -0.732183
 H         2.325035         2.029377        -1.075299
 H         3.288265        -0.248401        -2.398809
