19
Iteration:  2380charge 0 multiplicity 1
 C         0.198077         0.621456         0.166460
 C         1.623455         0.125451         0.226711
 C         2.239474        -0.771166         1.358204
 C         3.627435        -1.208845         0.962230
 C         4.152241        -0.336246        -0.138660
 O         4.009167         1.122577         0.097753
 C         2.636165         1.025616        -0.454403
 C         2.977531        -0.235669        -1.266764
 O         1.793551        -0.956335        -1.030259
 H         0.076037         1.384619         0.954231
 H        -0.087805         0.915185        -0.763242
 H        -0.498965        -0.205346         0.478536
 H         2.244305        -0.175286         2.273376
 H         1.497009        -1.678553         1.443095
 H         4.298923        -1.447756         1.815836
 H         3.617960        -2.184803         0.363884
 H         5.252550        -0.317711        -0.379698
 H         2.190264         1.886967        -0.863624
 H         3.133131        -0.253088        -2.318423
