19
Iteration:   740
 C         0.140285         0.480243         0.138469
 C         1.616205         0.104157         0.223767
 C         2.224876        -0.640580         1.428454
 C         3.572540        -1.186277         0.980241
 C         4.125978        -0.416877        -0.173786
 O         4.078039         1.133653         0.099357
 C         2.741062         0.993021        -0.486002
 C         2.987787        -0.296277        -1.282217
 O         1.765753        -0.841920        -1.040177
 H        -0.044181         1.517577         0.675461
 H        -0.209277         0.446825        -0.830541
 H        -0.444751        -0.153398         0.750308
 H         2.279921         0.125830         2.175555
 H         1.462708        -1.424001         1.806723
 H         4.271390        -1.242429         1.926957
 H         3.352209        -2.179127         0.591309
 H         5.195654        -0.667862        -0.473544
 H         2.427322         1.975872        -0.853030
 H         3.324328        -0.284164        -2.337102
