19
Iteration:  1691
 C         0.159522         0.451566         0.144622
 C         1.602435         0.048011         0.147062
 C         2.333476        -0.497075         1.417278
 C         3.651063        -1.213627         1.065124
 C         4.123353        -0.375075        -0.158096
 O         3.976706         0.979598         0.230914
 C         2.664033         0.995260        -0.552085
 C         2.999059        -0.226328        -1.312516
 O         1.727105        -0.817736        -1.109965
 H         0.084518         1.418809         0.607177
 H        -0.099646         0.504575        -1.001238
 H        -0.517494        -0.163404         0.707617
 H         2.516271         0.293314         2.074114
 H         1.618854        -1.183798         1.880622
 H         4.395270        -1.219329         1.907213
 H         3.377950        -2.311025         0.813909
 H         5.212098        -0.622107        -0.379103
 H         2.539225         2.148022        -0.879110
 H         3.230208        -0.420127        -2.355651
