19
Iteration:  4064charge 0 multiplicity 1
 C         0.113282         0.540826         0.206211
 C         1.600151         0.062059         0.150587
 C         2.276396        -0.565459         1.411613
 C         3.604739        -1.262691         0.998111
 C         4.153977        -0.404758        -0.169612
 O         3.982917         0.998653         0.097704
 C         2.648507         1.022828        -0.428945
 C         3.095849        -0.205644        -1.268156
 O         1.791300        -0.875210        -1.084180
 H        -0.164310         1.061615         1.179133
 H         0.093718         1.225564        -0.704535
 H        -0.661705        -0.202005         0.075988
 H         2.436087         0.407282         1.921129
 H         1.566124        -1.292652         1.956034
 H         4.319408        -1.214685         1.825284
 H         3.261908        -2.337001         0.748612
 H         5.186539        -0.532651        -0.571497
 H         2.307348         2.056668        -0.745365
 H         3.371677        -0.170137        -2.372630
