19
Iteration:  4315
 C         0.184650         0.694696         0.237733
 C         1.585528         0.041969         0.129444
 C         2.244501        -0.701904         1.407595
 C         3.641249        -1.152613         1.027030
 C         4.125156        -0.370757        -0.196818
 O         3.953560         1.021970         0.260138
 C         2.668039         1.015385        -0.505989
 C         3.023394        -0.277293        -1.406437
 O         1.797222        -0.929440        -1.070114
 H         0.227112         1.667070         0.702678
 H        -0.095280         0.765715        -0.843062
 H        -0.650634         0.112234         0.551701
 H         2.286259         0.042184         2.156603
 H         1.509501        -1.495310         1.734488
 H         4.370509        -1.055463         1.778775
 H         3.723675        -2.274986         0.769925
 H         5.158043        -0.612007        -0.370294
 H         2.391523         1.902219        -1.087669
 H         3.410958        -0.301586        -2.413017
