19
Iteration:   729charge 0 multiplicity 1
 C         0.170295         0.562038         0.188506
 C         1.588587         0.070440         0.201650
 C         2.203937        -0.711184         1.389432
 C         3.600796        -1.280402         1.034131
 C         4.141052        -0.344717        -0.085750
 O         4.068022         1.177063         0.062784
 C         2.752818         1.074916        -0.599095
 C         3.012410        -0.281900        -1.268133
 O         1.704595        -0.874073        -1.007555
 H        -0.037305         1.597292         0.699503
 H        -0.042784         0.669688        -0.830425
 H        -0.446584        -0.226033         0.542730
 H         2.296232        -0.167720         2.306228
 H         1.501378        -1.613575         1.601026
 H         4.389452        -1.377213         1.894330
 H         3.526984        -2.268752         0.575894
 H         5.209615        -0.563540        -0.408581
 H         2.251470         1.943718        -1.030320
 H         3.367858        -0.674458        -2.234693
