19
Iteration:   770charge 0 multiplicity 1
 C         0.110520         0.440138         0.230824
 C         1.644395         0.081471         0.100931
 C         2.273874        -0.416169         1.344821
 C         3.541539        -1.220776         0.967260
 C         4.055798        -0.461723        -0.278991
 O         3.983323         0.942315         0.316636
 C         2.664612         1.094562        -0.519468
 C         3.002964        -0.169617        -1.385217
 O         1.925798        -0.945562        -1.006600
 H         0.113152         1.434969         0.625726
 H        -0.510500         0.593457        -0.636696
 H        -0.396692        -0.217929         0.960625
 H         2.522768         0.538793         1.816577
 H         1.618831        -1.020489         1.962733
 H         4.213781        -1.186853         1.776002
 H         3.398464        -2.307330         1.051792
 H         5.111623        -0.734675        -0.555077
 H         2.658483         2.163219        -0.651537
 H         3.219161        -0.165376        -2.505737
