19
Iteration:   126
 C         0.194273         0.585565         0.106580
 C         1.565991        -0.011238         0.143473
 C         2.319808        -0.609808         1.465414
 C         3.700916        -1.079492         1.183670
 C         4.089227        -0.429909        -0.109952
 O         3.940419         0.985687         0.114255
 C         2.686996         1.064813        -0.579170
 C         3.003599        -0.317957        -1.329266
 O         1.725542        -0.869363        -1.114267
 H        -0.075439         1.321102         0.962992
 H         0.110771         1.245454        -0.797912
 H        -0.631649        -0.144934        -0.014167
 H         2.436897         0.266265         2.089702
 H         1.677692        -1.327356         1.990419
 H         4.347910        -0.945709         2.155807
 H         3.774613        -2.186886         1.031317
 H         5.110610        -0.775291        -0.432272
 H         2.369971         2.031410        -0.891766
 H         3.504571        -0.545547        -2.339998
