19
Iteration:  1341
 C         0.183433         0.526219         0.232614
 C         1.611186         0.066619         0.118081
 C         2.195053        -0.679955         1.384062
 C         3.659757        -1.137860         1.071547
 C         4.197099        -0.376736        -0.128030
 O         3.989663         1.048319         0.151008
 C         2.718936         1.033934        -0.549379
 C         2.966976        -0.286364        -1.346539
 O         1.742612        -0.860659        -1.075365
 H         0.063439         1.429360         0.876486
 H        -0.150247         0.834443        -0.775092
 H        -0.565052        -0.135448         0.658814
 H         2.085010         0.075160         2.248848
 H         1.558452        -1.482562         1.858939
 H         4.304729        -0.798154         1.827480
 H         3.598050        -2.255453         0.891304
 H         5.159143        -0.710491        -0.562351
 H         2.408183         1.910667        -0.982615
 H         3.449686        -0.392665        -2.316115
