19
Iteration:  2949
 C         0.209942         0.564878         0.283818
 C         1.569020         0.071675         0.159713
 C         2.124462        -0.668394         1.426828
 C         3.556535        -1.293144         0.949049
 C         4.212375        -0.328206        -0.117405
 O         3.975151         1.157244         0.116491
 C         2.772243         0.974483        -0.570610
 C         3.043216        -0.259589        -1.304145
 O         1.804927        -0.903217        -1.090932
 H         0.140603         1.195395         1.344533
 H        -0.274870         1.146828        -0.554435
 H        -0.564272        -0.208225         0.731544
 H         2.236635         0.112766         2.200008
 H         1.292112        -1.450585         1.678165
 H         4.359638        -1.293944         1.808943
 H         3.397317        -2.303527         0.488360
 H         5.313607        -0.431490        -0.273196
 H         2.512068         1.892063        -1.073201
 H         3.271775        -0.235116        -2.364964
