19
Iteration:  3081charge 0 multiplicity 1
 C         0.125491         0.635297         0.261748
 C         1.641475         0.061613         0.102127
 C         2.247026        -0.609804         1.300610
 C         3.607597        -1.236236         0.925726
 C         4.116987        -0.367240        -0.164101
 O         3.918535         1.048948         0.252084
 C         2.732723         0.980346        -0.517995
 C         3.028403        -0.218195        -1.368831
 O         1.806977        -0.966244        -0.992690
 H         0.155436         1.404707         1.059517
 H        -0.132714         1.008452        -0.654673
 H        -0.430988        -0.123701         0.699372
 H         2.372002         0.056274         2.092305
 H         1.427486        -1.253012         1.649295
 H         4.332783        -1.106471         1.765271
 H         3.672533        -2.282286         0.698771
 H         5.169647        -0.411870        -0.459193
 H         2.540458         1.946678        -0.735975
 H         3.302178        -0.288617        -2.409276
