19
Iteration:  1692charge 0 multiplicity 1
 C         0.161400         0.446730         0.142159
 C         1.600275         0.044223         0.151279
 C         2.335781        -0.500424         1.420097
 C         3.641958        -1.213275         1.069346
 C         4.125440        -0.368028        -0.148734
 O         3.976675         0.979135         0.227268
 C         2.669520         0.993687        -0.557599
 C         2.991169        -0.219331        -1.310840
 O         1.725423        -0.817582        -1.119199
 H         0.118849         1.417057         0.616996
 H        -0.094116         0.531528        -0.989596
 H        -0.521961        -0.168318         0.743317
 H         2.487230         0.327305         2.077230
 H         1.653912        -1.193144         1.892071
 H         4.434549        -1.192233         1.871549
 H         3.346869        -2.314480         0.789008
 H         5.227651        -0.634401        -0.382402
 H         2.568688         2.119747        -0.864354
 H         3.250902        -0.453355        -2.344445
