19
Iteration:  1655charge 0 multiplicity 1
 C         0.163102         0.531232         0.199970
 C         1.598641         0.033581         0.127502
 C         2.176176        -0.593332         1.403920
 C         3.510493        -1.174301         0.940015
 C         4.143193        -0.317128        -0.172784
 O         4.041489         1.047706         0.167367
 C         2.697439         1.100382        -0.548702
 C         3.037950        -0.291003        -1.342597
 O         1.885830        -0.978365        -0.902431
 H         0.143174         1.505326         0.756304
 H        -0.131610         0.887381        -0.791688
 H        -0.577210        -0.167582         0.574512
 H         2.212863        -0.028316         2.367048
 H         1.462734        -1.452068         1.532601
 H         4.098717        -1.250874         1.889540
 H         3.337179        -2.096054         0.419673
 H         5.137412        -0.545515        -0.449828
 H         2.293228         2.056306        -1.069826
 H         3.287005        -0.266481        -2.421673
