19
Iteration:  3941
 C         0.120000         0.558920         0.151924
 C         1.617369         0.068444         0.120779
 C         2.284363        -0.572418         1.353516
 C         3.645896        -1.195005         0.930121
 C         4.093416        -0.437924        -0.231172
 O         3.923386         0.970938         0.292588
 C         2.739456         1.022923        -0.458660
 C         3.036147        -0.278451        -1.291324
 O         1.780130        -0.811473        -1.036282
 H         0.164867         1.437726         0.797313
 H        -0.306673         0.679323        -0.828233
 H        -0.601576        -0.108995         0.710209
 H         2.473270         0.317193         2.098309
 H         1.615613        -1.303513         1.811695
 H         4.500846        -1.215222         1.673064
 H         3.566565        -2.242821         0.644759
 H         5.105983        -0.501690        -0.477568
 H         2.442570         2.048458        -0.780914
 H         3.356293        -0.433938        -2.321986
