19
Iteration:  1846
 C         0.153907         0.469712         0.283676
 C         1.640651         0.088384         0.124625
 C         2.223224        -0.628059         1.455240
 C         3.546670        -1.274382         0.913357
 C         4.108840        -0.385047        -0.093268
 O         3.976719         1.135105         0.119894
 C         2.762703         1.040673        -0.615038
 C         3.090740        -0.257663        -1.242119
 O         1.751208        -0.853395        -1.057165
 H         0.068201         1.449214         0.785389
 H        -0.315233         0.647887        -0.654260
 H        -0.472641        -0.385154         0.653727
 H         2.555249         0.216562         2.030557
 H         1.649036        -1.296881         2.053196
 H         4.155452        -1.582334         1.777330
 H         3.210007        -2.239453         0.427103
 H         5.244826        -0.390649        -0.153196
 H         2.445259         2.035436        -1.266746
 H         3.508232        -0.373549        -2.248127
