19
Iteration:  1091
 C         0.151054         0.375834         0.162839
 C         1.602920         0.093632         0.183958
 C         2.183394        -0.546012         1.484115
 C         3.471216        -1.209531         0.906619
 C         4.166776        -0.399194        -0.173727
 O         4.095757         1.109120         0.023564
 C         2.741985         1.031441        -0.481318
 C         3.054529        -0.222849        -1.253868
 O         1.799307        -0.877660        -0.961472
 H        -0.265325         1.235812         0.793622
 H        -0.105197         0.763827        -0.812502
 H        -0.351573        -0.363493         0.735794
 H         2.352973         0.298587         2.183744
 H         1.408969        -1.242869         1.868092
 H         4.138549        -1.466620         1.749953
 H         3.074104        -2.179028         0.482665
 H         5.223240        -0.757987        -0.430042
 H         2.283415         1.992444        -0.906562
 H         3.481547        -0.232537        -2.275254
