19
Iteration:   418charge 0 multiplicity 1
 C         0.182544         0.625295         0.248088
 C         1.625494         0.075661         0.034552
 C         2.193405        -0.606611         1.329067
 C         3.593626        -1.173336         1.030776
 C         4.141507        -0.358851        -0.126801
 O         3.912640         1.084225         0.191970
 C         2.697968         0.997264        -0.602228
 C         3.074083        -0.376254        -1.288407
 O         1.817472        -0.911350        -0.989984
 H         0.295726         1.357460         0.984874
 H        -0.387855         1.186434        -0.635981
 H        -0.492908        -0.258105         0.540700
 H         2.249100         0.068735         2.214627
 H         1.663064        -1.512450         1.571418
 H         4.270661        -1.062820         1.906293
 H         3.626505        -2.292752         0.774193
 H         5.178142        -0.551470        -0.436592
 H         2.399825         1.959874        -1.017109
 H         3.427226        -0.629975        -2.307722
