19
Iteration:  2673
 C         0.170997         0.501576         0.284561
 C         1.633550         0.078693         0.139598
 C         2.183542        -0.755707         1.332228
 C         3.515654        -1.247211         0.993721
 C         4.132632        -0.354199        -0.102193
 O         3.993333         1.171653         0.059095
 C         2.736067         1.081389        -0.604305
 C         3.124994        -0.257424        -1.251797
 O         1.744406        -0.835693        -0.991574
 H         0.144441         1.078817         1.179359
 H        -0.215616         1.127159        -0.404348
 H        -0.457329        -0.437036         0.410618
 H         2.395651        -0.012414         2.248915
 H         1.488776        -1.546769         1.698017
 H         4.292035        -1.459617         1.832717
 H         3.404548        -2.248037         0.414196
 H         5.139072        -0.670911        -0.420170
 H         2.498514         2.097659        -1.011490
 H         3.551675        -0.631454        -2.205880
