19
Iteration:   265charge 0 multiplicity 1
 C         0.106380         0.570854         0.150234
 C         1.644744         0.092879         0.164815
 C         2.065983        -0.675033         1.350233
 C         3.552163        -1.108089         1.035951
 C         4.169455        -0.394807        -0.212721
 O         4.107027         1.105719         0.085266
 C         2.769249         1.060558        -0.588720
 C         3.030271        -0.283418        -1.293990
 O         1.804167        -0.965946        -0.834941
 H        -0.162082         1.191208         0.895626
 H        -0.207391         0.922343        -0.928977
 H        -0.354254        -0.465848         0.354903
 H         1.856319        -0.154044         2.317274
 H         1.493526        -1.588064         1.317574
 H         4.204505        -0.936586         1.875338
 H         3.640984        -2.104696         0.822382
 H         5.248275        -0.562608        -0.384522
 H         2.480919         2.047853        -0.851398
 H         3.184578        -0.509806        -2.361458
