19
Iteration:  3632charge 0 multiplicity 1
 C         0.193696         0.517491         0.266273
 C         1.568390         0.086523         0.183031
 C         2.274246        -0.686508         1.372896
 C         3.500044        -1.349933         0.942635
 C         4.145587        -0.319547        -0.130972
 O         4.041735         1.068011         0.146985
 C         2.663200         1.035365        -0.582181
 C         3.083596        -0.225904        -1.254184
 O         1.802062        -0.759920        -1.031405
 H        -0.177397         1.347447         0.891739
 H        -0.222936         0.890525        -0.744891
 H        -0.413002        -0.401745         0.496512
 H         2.352827         0.079405         2.229482
 H         1.514924        -1.353850         1.759983
 H         4.169756        -1.692305         1.731731
 H         3.376849        -2.237523         0.346810
 H         5.231695        -0.570375        -0.370079
 H         2.168167         1.828407        -1.119462
 H         3.375754        -0.273752        -2.310492
