19
Iteration:  4995
 C         0.187913         0.482473         0.224262
 C         1.632231         0.052905         0.130657
 C         2.283370        -0.449932         1.399512
 C         3.615921        -1.154874         0.997303
 C         4.116630        -0.418389        -0.248731
 O         3.915949         0.933404         0.273600
 C         2.692603         1.012393        -0.548105
 C         3.006732        -0.191417        -1.385533
 O         1.767918        -0.905216        -1.042715
 H        -0.074480         0.610499         1.264019
 H         0.278286         1.439309        -0.125363
 H        -0.412301        -0.252048        -0.265588
 H         2.568830         0.227315         2.271432
 H         1.792141        -1.259794         1.955303
 H         4.249771        -0.811081         1.854643
 H         3.489290        -2.245699         0.886482
 H         5.084339        -0.746199        -0.675854
 H         2.348876         2.072604        -0.920703
 H         3.319784        -0.260626        -2.444870
