19
Iteration:  4935
 C         0.295699         0.535217         0.253858
 C         1.621956         0.104826         0.098138
 C         2.080235        -0.636111         1.415424
 C         3.543578        -1.220596         0.923324
 C         4.100716        -0.350831        -0.163996
 O         3.970361         1.121755         0.110383
 C         2.723142         1.050135        -0.499786
 C         3.052730        -0.223385        -1.342075
 O         1.844154        -0.971694        -0.971139
 H         0.363354         1.250098         1.128744
 H        -0.393018         0.905716        -0.609290
 H        -0.405751        -0.229057         0.718121
 H         2.232930        -0.064633         2.326768
 H         1.518774        -1.623387         1.625886
 H         4.240749        -1.247033         1.770372
 H         3.682114        -2.229937         0.557945
 H         5.136610        -0.593170        -0.486489
 H         2.298421         2.000857        -0.761224
 H         3.294774        -0.449033        -2.393246
