19
Iteration:  3200charge 0 multiplicity 1
 C         0.207731         0.577514         0.194709
 C         1.614506        -0.010073         0.164025
 C         2.277888        -0.556433         1.436192
 C         3.553441        -1.222990         0.983186
 C         4.132764        -0.432170        -0.243918
 O         3.928097         1.035281         0.245509
 C         2.696816         0.998095        -0.496559
 C         3.042751        -0.190950        -1.350040
 O         1.776218        -0.861388        -1.123460
 H         0.169432         1.109088         1.223793
 H        -0.067315         1.098730        -0.725153
 H        -0.418758        -0.385308         0.349078
 H         2.447441         0.268426         2.125087
 H         1.750260        -1.315389         2.043909
 H         4.268652        -0.998838         1.795313
 H         3.527378        -2.283673         0.826321
 H         5.183141        -0.734051        -0.329201
 H         2.261144         1.923663        -0.814729
 H         3.311812        -0.193466        -2.376162
