19
Iteration:  2659
 C         0.232771         0.491540         0.267564
 C         1.597080        -0.010008         0.125535
 C         2.174199        -0.649982         1.375288
 C         3.623870        -1.238051         1.005941
 C         4.110854        -0.359858        -0.133261
 O         4.033673         1.110230         0.097542
 C         2.748349         1.073905        -0.528603
 C         2.960274        -0.232312        -1.302142
 O         1.780477        -0.848354        -1.024519
 H         0.095533         1.014440         1.171870
 H         0.111561         1.149288        -0.684902
 H        -0.546340        -0.229613         0.133271
 H         2.081136         0.112838         2.296687
 H         1.481703        -1.435215         1.684558
 H         4.226237        -1.321754         1.871293
 H         3.557804        -2.328340         0.625168
 H         5.102127        -0.571993        -0.343225
 H         2.246769         1.996077        -0.929862
 H         3.268601        -0.247396        -2.390834
