19
Iteration:  2015charge 0 multiplicity 1
 C         0.203087         0.555022         0.234264
 C         1.592964         0.048142         0.144264
 C         2.174074        -0.661620         1.435678
 C         3.503402        -1.202291         0.930482
 C         4.174233        -0.403762        -0.197012
 O         3.989221         1.124348         0.068318
 C         2.689854         1.085107        -0.495938
 C         3.033504        -0.173504        -1.299226
 O         1.874503        -0.965516        -0.932908
 H         0.061523         1.448879         0.782771
 H        -0.019264         0.810090        -0.881510
 H        -0.404830        -0.267706         0.557137
 H         2.305327        -0.084864         2.346363
 H         1.582083        -1.534525         1.683363
 H         4.188391        -1.523419         1.784482
 H         3.327426        -2.197829         0.446613
 H         5.242284        -0.450890        -0.451428
 H         2.078265         1.982283        -0.765207
 H         3.385976        -0.455920        -2.369981
