19
Iteration:  2050
 C         0.201370         0.602520         0.252998
 C         1.601894         0.049631         0.164508
 C         2.216258        -0.671090         1.316570
 C         3.700324        -1.123100         1.048429
 C         4.201950        -0.407573        -0.221410
 O         3.899904         1.038434         0.191089
 C         2.678669         1.039623        -0.529648
 C         3.052165        -0.252215        -1.337043
 O         1.737178        -0.891609        -1.052524
 H         0.074944         1.395390         0.983614
 H        -0.332706         0.786268        -0.790788
 H        -0.479809        -0.194549         0.598987
 H         2.316288        -0.091626         2.235202
 H         1.601807        -1.600569         1.602174
 H         4.308930        -0.815798         1.949376
 H         3.643452        -2.275852         0.993070
 H         5.271591        -0.729051        -0.435925
 H         2.226716         1.930626        -0.928677
 H         3.359009        -0.377374        -2.432075
