19
Iteration:  1165
 C         0.328243         0.710334         0.296763
 C         1.552175        -0.010851         0.096118
 C         2.111273        -0.817318         1.378434
 C         3.576620        -1.200088         1.068201
 C         4.139496        -0.313738        -0.114601
 O         3.943470         1.204444         0.018150
 C         2.684747         1.000290        -0.576608
 C         3.073198        -0.283257        -1.291125
 O         1.825670        -0.972218        -1.026910
 H         0.353491         1.449153         1.204541
 H        -0.117710         1.239408        -0.551266
 H        -0.524947        -0.014380         0.589014
 H         2.263725        -0.079387         2.273939
 H         1.307963        -1.653217         1.468134
 H         4.239457        -1.129457         1.926210
 H         3.700753        -2.361575         0.883845
 H         5.228637        -0.478789        -0.303928
 H         2.204066         1.867456        -0.947061
 H         3.465429        -0.351033        -2.369604
