19
Iteration:  4811charge 0 multiplicity 1
 C         0.253876         0.568820         0.234151
 C         1.677555         0.039252         0.140671
 C         2.275305        -0.534535         1.371932
 C         3.696628        -1.214870         1.022854
 C         4.110907        -0.348747        -0.157205
 O         3.906750         1.035942         0.248850
 C         2.632781         0.946109        -0.588268
 C         3.031605        -0.283288        -1.352529
 O         1.688526        -0.853054        -1.090638
 H        -0.248567         0.972149         1.176136
 H         0.126092         1.254159        -0.613582
 H        -0.343765        -0.384320         0.150823
 H         2.483763         0.223126         2.179372
 H         1.569845        -1.197429         1.820606
 H         4.415911        -1.171340         1.890809
 H         3.626995        -2.293666         0.904597
 H         5.062406        -0.686042        -0.618950
 H         2.152372         1.864292        -0.828006
 H         3.498633        -0.350708        -2.327050
