19
Iteration:  4464charge 0 multiplicity 1
 C         0.203118         0.602376         0.264501
 C         1.618646         0.034248         0.165271
 C         2.105146        -0.695752         1.413412
 C         3.493425        -1.156711         0.925913
 C         4.133498        -0.286404        -0.127771
 O         4.013818         1.143158         0.059433
 C         2.696679         0.996741        -0.488119
 C         3.114963        -0.306300        -1.286737
 O         1.843587        -0.994959        -1.007489
 H         0.399246         1.542644         0.910406
 H        -0.001890         1.075954        -0.744228
 H        -0.705769         0.195218         0.709908
 H         2.151628        -0.144973         2.434331
 H         1.480078        -1.571342         1.420354
 H         4.380823        -1.448142         1.641524
 H         3.322382        -2.042650         0.302608
 H         5.145950        -0.550228        -0.438543
 H         2.318402         2.002455        -0.791600
 H         3.423874        -0.462251        -2.345182
