19
Iteration:  4750
 C         0.178112         0.494705         0.223417
 C         1.618699         0.030009         0.158422
 C         2.148592        -0.648154         1.467578
 C         3.518139        -1.241867         0.984716
 C         4.189118        -0.337491        -0.109858
 O         4.037594         1.135381         0.037421
 C         2.784916         1.058233        -0.641347
 C         3.054246        -0.230039        -1.294977
 O         1.753040        -0.876632        -0.938919
 H         0.140193         0.803350         1.257159
 H        -0.224783         1.250172        -0.485250
 H        -0.447944        -0.354443         0.108645
 H         2.140658         0.004482         2.365252
 H         1.475215        -1.538943         1.639295
 H         4.235387        -1.342382         1.797507
 H         3.367372        -2.271717         0.474098
 H         5.143505        -0.637807        -0.568637
 H         2.356106         2.088947        -0.944212
 H         3.283333        -0.411420        -2.347677
