19
Iteration:  1380
 C         0.184555         0.476550         0.238392
 C         1.640023         0.091819         0.151029
 C         2.205224        -0.458739         1.402440
 C         3.479140        -1.263917         0.925299
 C         4.124484        -0.367250        -0.138478
 O         3.975088         1.074663         0.145822
 C         2.730698         1.062521        -0.596949
 C         3.047762        -0.264280        -1.283598
 O         1.877044        -0.955789        -0.987073
 H         0.129760         1.135933         1.154615
 H        -0.294664         0.856302        -0.627387
 H        -0.352934        -0.500365         0.485223
 H         2.500977         0.322712         2.050560
 H         1.499821        -1.155177         1.851243
 H         4.071785        -1.685906         1.829653
 H         3.268866        -2.157204         0.371918
 H         5.198570        -0.468345        -0.169708
 H         2.268566         2.073895        -1.125554
 H         3.154605        -0.414316        -2.410453
