19
Iteration:  3910charge 0 multiplicity 1
 C         0.165038         0.490413         0.321800
 C         1.647981         0.089725         0.203450
 C         2.111141        -0.687141         1.389101
 C         3.467236        -1.208503         0.986946
 C         4.117552        -0.396981        -0.095239
 O         4.067628         1.078120         0.065537
 C         2.744468         1.049250        -0.557640
 C         3.079106        -0.209511        -1.325812
 O         1.855889        -0.848353        -1.093029
 H         0.054007         1.286677         1.104462
 H        -0.262420         0.950393        -0.579596
 H        -0.339139        -0.446354         0.651195
 H         2.212765         0.036758         2.237961
 H         1.232860        -1.283721         1.698875
 H         4.205103        -1.509344         1.704582
 H         3.313025        -2.187047         0.436019
 H         5.177625        -0.560029        -0.174084
 H         2.341953         2.014314        -0.983838
 H         3.322205        -0.273473        -2.403991
