19
Iteration:  4285charge 0 multiplicity 1
 C         0.197850         0.531334         0.270875
 C         1.630306         0.061458         0.098942
 C         2.151447        -0.674588         1.326737
 C         3.489742        -1.287864         1.079125
 C         4.157749        -0.372160        -0.113120
 O         4.096645         1.144113         0.039388
 C         2.700514         1.121908        -0.534759
 C         3.002030        -0.211891        -1.268832
 O         1.815109        -0.905926        -0.977265
 H         0.230750         1.377122         0.892257
 H        -0.317465         0.745595        -0.691267
 H        -0.407779        -0.327199         0.640329
 H         2.065443        -0.101491         2.235636
 H         1.383636        -1.505201         1.445350
 H         4.173477        -1.509373         1.929547
 H         3.353032        -2.261087         0.504762
 H         5.161244        -0.661310        -0.464038
 H         2.442673         1.898758        -1.190391
 H         3.394047        -0.249203        -2.274814
