19
Iteration:  3180charge 0 multiplicity 1
 C         0.220069         0.459158         0.326948
 C         1.651884         0.038214         0.065844
 C         2.254211        -0.499899         1.379753
 C         3.608907        -1.298970         1.047112
 C         4.060618        -0.370270        -0.129998
 O         3.916134         1.052122         0.201729
 C         2.735544         1.010438        -0.543342
 C         3.076882        -0.240279        -1.310536
 O         1.733551        -0.823874        -1.141278
 H         0.299238         1.034832         1.316726
 H        -0.017171         1.105532        -0.484034
 H        -0.539374        -0.328905         0.201369
 H         2.423764         0.447278         1.854451
 H         1.558445        -1.222683         1.874657
 H         4.265877        -1.577361         1.903439
 H         3.335058        -2.134920         0.409563
 H         5.074231        -0.485268        -0.603036
 H         2.387120         1.935461        -0.826099
 H         3.533438        -0.377795        -2.316809
