19
Iteration:  2708
 C         0.209618         0.558985         0.310736
 C         1.582706         0.040760         0.021635
 C         2.257562        -0.577113         1.323119
 C         3.552710        -1.192681         0.952544
 C         4.140332        -0.358251        -0.210750
 O         3.891879         1.000072         0.250676
 C         2.720948         1.041564        -0.545046
 C         3.050765        -0.202132        -1.331561
 O         1.829229        -0.941244        -1.013418
 H         0.356528         1.340973         1.114838
 H        -0.268052         0.933512        -0.545790
 H        -0.429692        -0.226834         0.778171
 H         2.319927         0.252379         2.057301
 H         1.662010        -1.420879         1.814766
 H         4.296782        -1.208410         1.873620
 H         3.284922        -2.241447         0.710523
 H         5.253737        -0.586844        -0.465093
 H         2.342898         2.036267        -0.755047
 H         3.481683        -0.328303        -2.304775
