19
Iteration:  4607
 C         0.266729         0.592108         0.245151
 C         1.631954        -0.039514         0.104943
 C         2.227482        -0.564422         1.464844
 C         3.584996        -1.166826         0.961391
 C         4.124722        -0.402004        -0.214320
 O         3.951880         1.058329         0.207338
 C         2.678922         0.983462        -0.510103
 C         3.014943        -0.246544        -1.340332
 O         1.751223        -0.924504        -1.096794
 H         0.071281         0.995449         1.222518
 H         0.141661         1.311796        -0.561012
 H        -0.508381        -0.074404         0.059287
 H         2.341742         0.342292         2.065318
 H         1.570836        -1.202563         1.995350
 H         4.276359        -0.910516         1.786696
 H         3.649150        -2.268593         0.916631
 H         5.098960        -0.755335        -0.416005
 H         2.396715         2.013768        -0.738240
 H         3.368195        -0.246467        -2.315390
