19
Iteration:  3975
 C         0.266700         0.606029         0.182579
 C         1.666997         0.028233         0.104011
 C         2.192683        -0.648573         1.346793
 C         3.576248        -1.274035         0.953341
 C         4.100302        -0.381128        -0.197515
 O         3.950641         1.096856         0.159045
 C         2.658601         1.043853        -0.420967
 C         2.973786        -0.235852        -1.300954
 O         1.847429        -0.926639        -0.968925
 H         0.339063         1.575190         0.769467
 H        -0.030346         1.041194        -0.798871
 H        -0.484735        -0.060566         0.655973
 H         2.244567         0.154729         2.165599
 H         1.539540        -1.493146         1.715213
 H         4.298622        -1.249722         1.801092
 H         3.376391        -2.275100         0.482015
 H         5.143133        -0.666886        -0.337241
 H         2.221160         2.005068        -0.820427
 H         3.376935        -0.191684        -2.353092
