19
Iteration:  2298
 C         0.119755         0.442981         0.260745
 C         1.635538         0.084126         0.195656
 C         2.213621        -0.603373         1.430437
 C         3.576516        -1.301858         0.919943
 C         4.107660        -0.321075        -0.092554
 O         4.042849         1.122000         0.096089
 C         2.830029         1.067435        -0.567972
 C         3.060120        -0.251017        -1.294674
 O         1.707303        -0.861591        -1.035305
 H        -0.405478         1.086376         1.049586
 H        -0.312508         0.879524        -0.750983
 H        -0.209238        -0.581878         0.381390
 H         2.605480         0.037620         2.246457
 H         1.534033        -1.247132         1.910753
 H         4.217307        -1.550834         1.742542
 H         3.401844        -2.128859         0.299802
 H         5.116636        -0.435429        -0.476694
 H         2.270767         2.023744        -0.873934
 H         3.280071        -0.421792        -2.392235
