19
Iteration:  2880charge 0 multiplicity 1
 C         0.158329         0.551801         0.177840
 C         1.618409         0.037982         0.154199
 C         2.180166        -0.684603         1.403468
 C         3.571811        -1.256296         0.953931
 C         4.161627        -0.347477        -0.151904
 O         4.031342         1.082654         0.052411
 C         2.699305         1.098719        -0.406916
 C         3.004293        -0.255907        -1.242416
 O         1.806343        -0.881820        -1.008378
 H         0.071060         1.470808         0.869076
 H        -0.027267         0.734448        -1.019207
 H        -0.569211        -0.317180         0.484888
 H         2.347497         0.094857         2.209472
 H         1.608286        -1.510533         1.717855
 H         4.255994        -1.388574         1.749935
 H         3.330484        -2.194839         0.461368
 H         5.191893        -0.402650        -0.423250
 H         2.387684         2.106078        -0.784178
 H         3.292132        -0.307190        -2.299775
