19
Iteration:  3861charge 0 multiplicity 1
 C         0.183201         0.664417         0.185889
 C         1.581247         0.033025         0.127165
 C         2.350841        -0.613625         1.403145
 C         3.680510        -1.233310         0.988167
 C         4.189954        -0.418238        -0.159096
 O         3.879554         0.990782         0.260940
 C         2.654826         1.012086        -0.512719
 C         3.030822        -0.254472        -1.327830
 O         1.705956        -0.876304        -1.094656
 H        -0.122259         1.095342         1.125992
 H         0.070588         1.493053        -0.562606
 H        -0.445419        -0.181266        -0.063768
 H         2.496158         0.247350         2.160553
 H         1.656554        -1.397937         1.806158
 H         4.345419        -1.077857         1.970248
 H         3.598807        -2.327491         0.598256
 H         5.231911        -0.326821        -0.635527
 H         2.364910         2.013191        -0.814086
 H         3.388502        -0.425688        -2.373216
