19
Iteration:  4503
 C         0.200921         0.554493         0.234474
 C         1.578751         0.075783         0.127625
 C         2.250925        -0.598233         1.351295
 C         3.691928        -1.179109         1.006876
 C         4.080184        -0.417480        -0.173751
 O         3.920178         1.020062         0.228762
 C         2.752108         1.054288        -0.547368
 C         3.025989        -0.279758        -1.305851
 O         1.724401        -0.871765        -1.083565
 H         0.260389         1.525235         0.700770
 H        -0.212355         0.726255        -0.750214
 H        -0.331870        -0.155059         0.916606
 H         2.195936         0.149891         2.141314
 H         1.608538        -1.517477         1.481586
 H         4.346239        -1.067446         1.849735
 H         3.545357        -2.252168         0.850410
 H         5.207680        -0.566713        -0.350022
 H         2.534211         2.076657        -0.908131
 H         3.572971        -0.583650        -2.249218
