19
Iteration:  3390charge 0 multiplicity 1
 C         0.247011         0.608903         0.231504
 C         1.609364         0.072612         0.082259
 C         2.249427        -0.563054         1.333739
 C         3.710313        -1.223385         1.002873
 C         4.148903        -0.378165        -0.129102
 O         3.890273         1.005317         0.285883
 C         2.681410         0.978581        -0.537800
 C         3.009981        -0.247241        -1.358284
 O         1.725365        -0.865905        -1.086024
 H         0.092918         1.216649         1.165309
 H        -0.270722         0.887200        -0.687103
 H        -0.366130        -0.249686         0.489820
 H         2.304469         0.143973         2.117125
 H         1.583507        -1.395744         1.635670
 H         4.390867        -1.171534         1.839009
 H         3.649628        -2.175355         0.516488
 H         5.218069        -0.622201        -0.372317
 H         2.279317         1.932917        -0.721128
 H         3.403660        -0.545657        -2.356112
