19
Iteration:  1546charge 0 multiplicity 1
 C         0.183291         0.491044         0.126501
 C         1.614437         0.034355         0.260238
 C         2.200411        -0.528954         1.449190
 C         3.460271        -1.203299         0.943842
 C         4.181842        -0.355571        -0.110725
 O         4.081078         1.107070         0.059930
 C         2.673255         0.991103        -0.501058
 C         3.080487        -0.285249        -1.293500
 O         1.761757        -0.881099        -1.007644
 H        -0.147498         1.296395         0.876260
 H        -0.012419         0.627371        -0.890426
 H        -0.435978        -0.389591         0.338634
 H         2.586887         0.076296         2.218512
 H         1.490422        -1.254922         1.855238
 H         4.098849        -1.550198         1.794272
 H         3.359181        -2.079351         0.372341
 H         5.208672        -0.564219        -0.323972
 H         2.124021         1.982845        -0.920200
 H         3.534009        -0.248967        -2.322086
