19
Iteration:  4569charge 0 multiplicity 1
 C         0.184706         0.524056         0.233548
 C         1.636454         0.130398         0.155543
 C         2.164468        -0.527977         1.398845
 C         3.488772        -1.267660         0.852203
 C         4.267621        -0.404394        -0.156147
 O         3.955848         1.111710         0.161008
 C         2.760076         1.008754        -0.588054
 C         3.071192        -0.272760        -1.332046
 O         1.773359        -0.908855        -0.849966
 H        -0.174697         1.037449         1.144005
 H        -0.125227         1.253491        -0.546631
 H        -0.297048        -0.520498         0.018753
 H         2.293262        -0.081358         2.417804
 H         1.432782        -1.432602         1.476860
 H         4.248029        -1.287570         1.644139
 H         3.298423        -2.243308         0.407265
 H         5.437244        -0.442453        -0.420838
 H         2.225401         1.864321        -1.047952
 H         3.135167        -0.444788        -2.501055
