19
Iteration:  2648charge 0 multiplicity 1
 C         0.195306         0.556303         0.213149
 C         1.638108         0.033147         0.182476
 C         2.201236        -0.646033         1.388497
 C         3.586688        -1.178544         1.029836
 C         4.167994        -0.354334        -0.231686
 O         4.005028         1.035888         0.160057
 C         2.678129         0.959016        -0.459849
 C         2.992543        -0.149759        -1.353503
 O         1.778770        -0.927022        -1.057579
 H        -0.059188         1.085431         1.105666
 H        -0.046939         1.336166        -0.600569
 H        -0.403518        -0.319423         0.129210
 H         2.293085         0.204640         2.241020
 H         1.602545        -1.479634         1.733495
 H         4.328836        -0.962368         1.758820
 H         3.471915        -2.300259         0.841083
 H         5.128232        -0.583487        -0.573123
 H         2.356477         1.997517        -0.735426
 H         3.285251        -0.134070        -2.440328
