19
Iteration:  2425
 C         0.157067         0.453781         0.302128
 C         1.613006         0.076052         0.123274
 C         2.256495        -0.560833         1.346267
 C         3.617925        -1.214769         0.988077
 C         4.153026        -0.366684        -0.132858
 O         3.944279         1.010636         0.183221
 C         2.733438         1.028008        -0.466848
 C         3.010706        -0.167367        -1.358804
 O         1.760985        -0.886208        -1.146335
 H         0.001161         1.262383         1.065723
 H        -0.141687         0.715497        -0.647745
 H        -0.498094        -0.361852         0.600798
 H         2.497406         0.230059         2.110585
 H         1.553130        -1.356572         1.815227
 H         4.321893        -1.150432         1.852599
 H         3.455547        -2.315048         0.901614
 H         5.168145        -0.663916        -0.518195
 H         2.475905         2.010046        -0.726642
 H         3.396835        -0.111009        -2.338043
