19
Iteration:  3706
 C         0.218844         0.549332         0.197121
 C         1.647224         0.064267         0.190572
 C         2.211877        -0.720796         1.380799
 C         3.544803        -1.315689         0.872219
 C         4.135356        -0.300074        -0.088445
 O         4.043427         1.139346         0.105696
 C         2.723178         0.994273        -0.529140
 C         3.016828        -0.248658        -1.276316
 O         1.719967        -0.804664        -0.966921
 H        -0.126265         1.010044         1.118520
 H         0.041172         1.191255        -0.675494
 H        -0.477530        -0.216096         0.056832
 H         2.078381        -0.060919         2.258304
 H         1.416143        -1.479175         1.692930
 H         4.216962        -1.378029         1.771004
 H         3.638950        -2.363466         0.483837
 H         5.179221        -0.543117        -0.465023
 H         2.377202         1.943100        -0.885756
 H         3.482258        -0.494402        -2.208020
