19
Iteration:  2510
 C         0.183678         0.586352         0.179758
 C         1.620690         0.056398         0.207541
 C         2.261597        -0.782265         1.355001
 C         3.681086        -1.209198         1.011729
 C         4.158630        -0.364921        -0.149607
 O         3.987787         1.105192         0.095115
 C         2.606122         1.017832        -0.459125
 C         2.993418        -0.191879        -1.262976
 O         1.772061        -0.899104        -1.045190
 H        -0.088913         1.415080         0.908588
 H         0.169024         1.129656        -0.780700
 H        -0.617799        -0.269214         0.086059
 H         2.323458        -0.090432         2.124702
 H         1.535217        -1.516629         1.729920
 H         4.353218        -1.142118         1.863251
 H         3.596773        -2.196373         0.711798
 H         5.081880        -0.593682        -0.772954
 H         2.218495         2.033565        -0.587441
 H         3.226692        -0.187889        -2.340479
