19
Iteration:  4485
 C         0.202470         0.631432         0.280191
 C         1.667335         0.122210         0.083381
 C         2.125229        -0.736184         1.314688
 C         3.534718        -1.286164         1.009221
 C         4.142300        -0.373557        -0.173302
 O         3.956524         1.106344         0.143396
 C         2.692383         1.018949        -0.631458
 C         3.056147        -0.206766        -1.309109
 O         1.888027        -0.928514        -0.895671
 H         0.046184         1.599894         0.835568
 H        -0.247100         0.766971        -0.698658
 H        -0.324820        -0.100119         0.902764
 H         2.266178        -0.039038         2.242572
 H         1.416917        -1.532343         1.349015
 H         4.114617        -1.183365         2.044901
 H         3.653814        -2.335381         0.720703
 H         5.231008        -0.498558        -0.459769
 H         2.243728         1.943146        -1.035356
 H         3.061566        -0.277058        -2.420154
