19
Iteration:  2304charge 0 multiplicity 1
 C         0.112321         0.459372         0.283299
 C         1.611305         0.074652         0.175765
 C         2.230860        -0.627444         1.418327
 C         3.503995        -1.248438         0.908391
 C         4.136936        -0.335325        -0.101643
 O         4.042452         1.130183         0.128074
 C         2.801379         1.033192        -0.617179
 C         3.029477        -0.245970        -1.320382
 O         1.784042        -0.832182        -1.021835
 H        -0.149388         0.956144         1.221415
 H        -0.376844         0.774005        -0.546500
 H        -0.321654        -0.572354         0.475651
 H         2.515972         0.204336         2.111928
 H         1.386656        -1.270446         1.902621
 H         4.109706        -1.486054         1.843606
 H         3.693606        -2.279702         0.287388
 H         5.121361        -0.690303        -0.489736
 H         2.415909         1.990942        -0.804748
 H         3.285586        -0.476390        -2.335261
