19
Iteration:  4756charge 0 multiplicity 1
 C         0.208678         0.483818         0.259329
 C         1.569098         0.080181         0.180667
 C         2.153521        -0.661747         1.418177
 C         3.486880        -1.180250         0.963222
 C         4.200224        -0.312871        -0.099104
 O         4.028397         1.106327        -0.001857
 C         2.805360         1.072261        -0.562868
 C         3.030306        -0.277763        -1.318502
 O         1.795388        -0.900048        -0.955646
 H        -0.014778         0.795848         1.333454
 H        -0.196319         1.281404        -0.376573
 H        -0.334997        -0.486247        -0.012435
 H         2.129721        -0.065885         2.364144
 H         1.486048        -1.493195         1.567087
 H         4.154872        -1.271404         1.846654
 H         3.247677        -2.103445         0.528816
 H         5.157741        -0.793572        -0.424625
 H         2.463358         2.008734        -0.889051
 H         3.299375        -0.381378        -2.383491
