19
Iteration:  2460
 C         0.187461         0.441671         0.317289
 C         1.587590         0.111513         0.063404
 C         2.287176        -0.562682         1.349441
 C         3.598206        -1.260634         0.954214
 C         4.106326        -0.411278        -0.125355
 O         3.894124         1.045592         0.155967
 C         2.676121         1.008034        -0.530669
 C         3.103666        -0.204141        -1.253035
 O         1.803272        -0.837902        -1.066207
 H         0.135989         1.084026         1.209683
 H        -0.140894         1.137775        -0.435144
 H        -0.399796        -0.414068         0.382828
 H         2.408103         0.260607         2.161064
 H         1.601345        -1.376593         1.713821
 H         4.315512        -1.227857         1.804376
 H         3.379308        -2.339920         0.539478
 H         5.098726        -0.372059        -0.524183
 H         2.429658         1.955327        -1.002342
 H         3.468987        -0.271816        -2.263769
