19
Iteration:  3554
 C         0.223921         0.527627         0.294511
 C         1.571403         0.065578         0.110544
 C         2.208388        -0.672380         1.350090
 C         3.673593        -1.226580         1.014189
 C         4.126951        -0.350923        -0.069901
 O         3.978086         1.031783         0.198160
 C         2.738496         1.017432        -0.592153
 C         3.066136        -0.231484        -1.314980
 O         1.664761        -0.828931        -1.127680
 H         0.170690         1.221812         1.228390
 H        -0.183841         1.107327        -0.610687
 H        -0.481786        -0.259714         0.506630
 H         2.378943         0.086875         2.086718
 H         1.476700        -1.420706         1.717678
 H         4.294931        -1.226336         1.901295
 H         3.751229        -2.190153         0.511060
 H         5.157704        -0.615408        -0.539491
 H         2.360354         1.942127        -0.830273
 H         3.495009        -0.214479        -2.282160
