19
Iteration:  3335charge 0 multiplicity 1
 C         0.211448         0.457232         0.143183
 C         1.611529         0.047912         0.241025
 C         2.208142        -0.652844         1.433132
 C         3.456382        -1.279193         0.967931
 C         4.196943        -0.299057        -0.206097
 O         4.068010         1.137116         0.072619
 C         2.743239         1.061176        -0.465509
 C         2.988527        -0.218365        -1.247677
 O         1.770295        -0.866555        -1.041095
 H        -0.151268         1.189549         1.011266
 H         0.048544         1.178720        -0.725898
 H        -0.490326        -0.366599         0.207608
 H         2.426921        -0.109254         2.308449
 H         1.394205        -1.362818         1.774379
 H         3.992858        -1.558036         1.887784
 H         3.447748        -2.253065         0.447759
 H         5.224039        -0.701341        -0.498936
 H         2.356206         2.012395        -0.693506
 H         3.364400        -0.525129        -2.289466
