19
Iteration:  3240charge 0 multiplicity 1
 C         0.201003         0.568251         0.163988
 C         1.620423         0.110137         0.225598
 C         2.153111        -0.791063         1.366718
 C         3.527837        -1.214326         0.883793
 C         4.147237        -0.323899        -0.166366
 O         4.020243         1.125161         0.136973
 C         2.787395         0.987057        -0.534286
 C         3.070125        -0.227758        -1.304746
 O         1.748173        -0.876840        -0.894292
 H        -0.106053         1.349357         0.731341
 H        -0.113445         0.962428        -0.820179
 H        -0.424377        -0.203676         0.564216
 H         2.256980        -0.285156         2.382036
 H         1.528632        -1.653053         1.568116
 H         4.133039        -1.258612         1.778588
 H         3.504128        -2.268676         0.563216
 H         5.066851        -0.423639        -0.644814
 H         2.375732         1.986102        -0.958282
 H         3.417799        -0.246768        -2.330507
