19
Iteration:  2075
 C         0.229605         0.533814         0.316446
 C         1.567725        -0.023474         0.039176
 C         2.258159        -0.621562         1.392397
 C         3.722507        -1.188891         1.106420
 C         4.098571        -0.342126        -0.116210
 O         3.953664         1.047571         0.180310
 C         2.699240         1.027794        -0.579530
 C         3.056303        -0.263609        -1.319327
 O         1.671026        -0.833176        -1.179854
 H         0.257266         1.262568         1.224456
 H        -0.208254         0.971255        -0.559700
 H        -0.616029        -0.243101         0.481004
 H         2.445148         0.066492         2.253196
 H         1.616233        -1.477608         1.760349
 H         4.341399        -0.806998         1.891703
 H         3.748421        -2.281601         0.977318
 H         5.133356        -0.595182        -0.393003
 H         2.269214         1.823328        -1.125271
 H         3.444681        -0.383745        -2.270300
