19
Iteration:  3930charge 0 multiplicity 1
 C         0.157700         0.497743         0.192294
 C         1.571711         0.063014         0.082962
 C         2.256675        -0.573783         1.295365
 C         3.603074        -1.303358         0.981156
 C         4.170164        -0.389903        -0.144544
 O         4.016218         1.056018         0.208306
 C         2.743081         1.020573        -0.471765
 C         3.039757        -0.205635        -1.275899
 O         1.707517        -0.839672        -1.029047
 H         0.128703         1.440150         0.757892
 H        -0.267109         0.819141        -0.723374
 H        -0.423870        -0.300652         0.738544
 H         2.485269         0.208929         2.138746
 H         1.550866        -1.284572         1.734763
 H         4.211407        -1.212260         1.946417
 H         3.388480        -2.315270         0.659580
 H         5.077278        -0.643545        -0.591359
 H         2.422505         2.030157        -0.806156
 H         3.357561        -0.279231        -2.310951
