19
Iteration:  1031charge 0 multiplicity 1
 C         0.185787         0.615157         0.264449
 C         1.583676         0.003864         0.102524
 C         2.264450        -0.658707         1.306866
 C         3.695162        -1.196161         1.110474
 C         4.237346        -0.345343        -0.065974
 O         3.910393         1.091578         0.133437
 C         2.698297         0.952451        -0.595979
 C         2.999104        -0.318788        -1.299125
 O         1.670586        -0.843863        -1.102012
 H         0.112267         1.017825         1.206607
 H        -0.108588         1.310902        -0.554669
 H        -0.534585        -0.206261         0.045561
 H         2.536339         0.167212         2.027596
 H         1.658906        -1.361813         1.907536
 H         4.417006        -1.120757         1.969374
 H         3.613850        -2.246465         0.894247
 H         5.268709        -0.391470        -0.295970
 H         2.263259         1.848396        -0.992878
 H         3.520231        -0.383237        -2.266927
