19
Iteration:   295charge 0 multiplicity 1
 C         0.211570         0.509783         0.147235
 C         1.619240        -0.012945         0.116233
 C         2.277672        -0.474243         1.475151
 C         3.588558        -1.175866         1.128003
 C         4.121418        -0.410857        -0.119665
 O         3.995113         1.027566         0.117988
 C         2.615248         0.983855        -0.546826
 C         3.073517        -0.265868        -1.259647
 O         1.753665        -0.849556        -1.154509
 H        -0.049783         1.192359         1.017082
 H        -0.210603         0.962111        -0.814531
 H        -0.492866        -0.371637         0.219366
 H         2.479311         0.537779         1.930336
 H         1.640071        -1.130167         2.062569
 H         4.353234        -1.347175         1.879498
 H         3.412333        -2.276921         0.750169
 H         5.113183        -0.607163        -0.417781
 H         2.282556         1.996600        -0.772695
 H         3.422478        -0.423116        -2.232194
