19
Iteration:  3903charge 0 multiplicity 1
 C         0.187818         0.479497         0.335815
 C         1.618745         0.109070         0.168700
 C         2.086662        -0.655344         1.442310
 C         3.462373        -1.235948         0.960627
 C         4.077755        -0.342728        -0.126415
 O         4.012779         1.088670         0.047307
 C         2.806466         1.008545        -0.546062
 C         3.110484        -0.229376        -1.337823
 O         1.891317        -0.835141        -1.064230
 H         0.170901         1.132946         1.237685
 H        -0.305667         1.041977        -0.532033
 H        -0.480953        -0.324117         0.603412
 H         2.205091        -0.073687         2.316320
 H         1.442717        -1.587396         1.569690
 H         4.154049        -1.271683         1.812425
 H         3.094425        -2.081989         0.351023
 H         5.101592        -0.876641        -0.333760
 H         2.394500         1.970726        -0.847047
 H         3.577703        -0.356174        -2.350600
