19
Iteration:  4719
 C         0.181518         0.603367         0.183977
 C         1.648943         0.068143         0.146048
 C         2.298681        -0.500787         1.351447
 C         3.596185        -1.184530         0.936315
 C         4.190456        -0.391385        -0.163929
 O         3.867338         0.973378         0.211709
 C         2.680341         0.961557        -0.514502
 C         3.016631        -0.222714        -1.272229
 O         1.766291        -0.951238        -1.051628
 H         0.119728         1.381700         0.905673
 H        -0.208209         0.909407        -0.786868
 H        -0.416269        -0.149257         0.677331
 H         2.515861         0.240919         2.063012
 H         1.752974        -1.341160         1.851089
 H         4.234275        -1.152281         1.822452
 H         3.628341        -2.310904         0.669272
 H         5.201562        -0.458947        -0.489055
 H         2.361452         2.051888        -0.601433
 H         3.330481        -0.306920        -2.353024
