19
Iteration:  1615
 C         0.187971         0.594492         0.272235
 C         1.622847         0.051993         0.069710
 C         2.223108        -0.645765         1.337289
 C         3.654392        -1.171379         1.087836
 C         4.120744        -0.353784        -0.100070
 O         3.913768         1.079342         0.187655
 C         2.676686         0.951076        -0.637891
 C         3.093727        -0.265620        -1.292470
 O         1.748238        -0.904857        -1.071064
 H         0.200400         1.107087         1.221545
 H         0.012574         1.385501        -0.564494
 H        -0.666955        -0.037188         0.179719
 H         2.241439         0.192925         1.967394
 H         1.611026        -1.422470         1.785136
 H         4.372599        -1.121157         1.858793
 H         3.698834        -2.326112         0.933532
 H         5.137083        -0.658812        -0.505279
 H         2.363252         1.936465        -1.028054
 H         3.496056        -0.552850        -2.227804
