19
Iteration:   926
 C         0.154412         0.452692         0.237271
 C         1.626860         0.065315         0.066422
 C         2.289584        -0.459277         1.427922
 C         3.510492        -1.211423         0.918277
 C         4.095321        -0.425718        -0.205427
 O         3.905924         1.012222         0.232168
 C         2.705965         1.089188        -0.543023
 C         3.046783        -0.191012        -1.334047
 O         1.879369        -0.953403        -0.976979
 H         0.081603         1.481086         0.846068
 H        -0.295676         0.611795        -0.698260
 H        -0.301169        -0.313778         0.853767
 H         2.709042         0.351479         1.983169
 H         1.581211        -1.098817         2.017143
 H         4.274512        -1.526495         1.693770
 H         3.142815        -2.213446         0.435463
 H         5.175754        -0.711605        -0.476744
 H         2.487462         2.125993        -0.861378
 H         3.441883        -0.258531        -2.355820
