19
Iteration:  1417
 C         0.192018         0.539337         0.138971
 C         1.583407         0.062158         0.120985
 C         2.282101        -0.531834         1.396763
 C         3.665291        -1.175999         1.064008
 C         4.165794        -0.407834        -0.150341
 O         3.922718         1.001186         0.198994
 C         2.672629         0.966084        -0.512644
 C         2.938983        -0.241577        -1.322380
 O         1.785869        -0.904977        -1.067555
 H        -0.054651         1.188138         1.039279
 H         0.012660         1.282910        -0.692714
 H        -0.514303        -0.283817         0.138505
 H         2.612793         0.367302         2.052820
 H         1.583609        -1.179402         2.000273
 H         4.449770        -1.017787         1.774347
 H         3.461112        -2.323027         0.833981
 H         5.205862        -0.606849        -0.556229
 H         2.541972         1.985013        -0.828740
 H         3.372471        -0.254336        -2.361513
