19
Iteration:  3649
 C         0.145294         0.462218         0.310928
 C         1.643289         0.079985         0.091802
 C         2.214403        -0.555679         1.401379
 C         3.558632        -1.238288         0.937775
 C         4.119767        -0.446464        -0.183725
 O         3.952204         1.036946         0.240748
 C         2.791066         1.072705        -0.502541
 C         3.044988        -0.184611        -1.370323
 O         1.777864        -0.874371        -1.090845
 H         0.210981         1.129072         1.179820
 H        -0.201255         1.068909        -0.480393
 H        -0.498557        -0.384907         0.515549
 H         2.379093         0.256315         2.075109
 H         1.480408        -1.336229         1.765468
 H         4.254228        -1.307542         1.792529
 H         3.259073        -2.243343         0.489783
 H         5.134274        -0.675064        -0.462695
 H         2.655461         2.139765        -0.800505
 H         3.451468        -0.298375        -2.371140
