19
Iteration:  4019
 C         0.181869         0.560041         0.313258
 C         1.613171         0.145724         0.102826
 C         2.162095        -0.636700         1.277799
 C         3.603871        -1.246868         1.085052
 C         4.159611        -0.468507        -0.133857
 O         3.953414         1.061913         0.120732
 C         2.701307         1.020313        -0.589049
 C         3.057886        -0.228809        -1.302488
 O         1.820730        -0.826004        -1.019304
 H        -0.058387         0.836133         1.382495
 H        -0.268258         1.247265        -0.463993
 H        -0.319792        -0.417459         0.310111
 H         2.320596        -0.011423         2.213352
 H         1.440679        -1.514310         1.377509
 H         4.242271        -1.052128         1.979051
 H         3.510536        -2.282691         0.637779
 H         5.184066        -0.654676        -0.515376
 H         2.360351         2.072390        -0.895766
 H         3.461867        -0.506239        -2.365382
