19
Iteration:  4044
 C         0.225269         0.494844         0.248154
 C         1.608846         0.030967         0.059590
 C         2.206216        -0.523846         1.414898
 C         3.595055        -1.117343         1.023889
 C         4.113590        -0.457523        -0.195428
 O         3.983853         1.006495         0.309319
 C         2.765545         0.984307        -0.523639
 C         2.970448        -0.221842        -1.413490
 O         1.756407        -0.863526        -1.089911
 H         0.038702         0.808741         1.325676
 H        -0.049479         1.368952        -0.485147
 H        -0.458237        -0.390932         0.151639
 H         2.436823         0.252710         2.122939
 H         1.515573        -1.385956         1.791845
 H         4.370337        -0.803670         1.685747
 H         3.582903        -2.209962         0.751070
 H         5.194309        -0.689570        -0.461187
 H         2.624285         1.981708        -0.921993
 H         3.095093        -0.268578        -2.510501
