19
Iteration:  2257
 C         0.188588         0.577232         0.223288
 C         1.604546         0.071190         0.147910
 C         2.242557        -0.592307         1.420287
 C         3.605690        -1.191933         0.918640
 C         4.095473        -0.326761        -0.311968
 O         3.949296         0.994580         0.255205
 C         2.676601         1.038999        -0.430916
 C         2.978211        -0.183191        -1.401482
 O         1.848889        -1.053292        -0.989235
 H         0.075029         1.365036         0.922853
 H        -0.036348         1.101024        -0.806146
 H        -0.542018        -0.202624         0.376022
 H         2.265406         0.315533         2.013727
 H         1.542600        -1.265193         1.980539
 H         4.462000        -1.020723         1.582384
 H         3.544857        -2.300282         0.870239
 H         5.192923        -0.514538        -0.499368
 H         2.595050         2.198053        -0.648604
 H         3.443153        -0.238403        -2.506071
