19
Iteration:  3640
 C         0.146000         0.495571         0.296627
 C         1.608112         0.034739         0.150216
 C         2.243798        -0.553009         1.384688
 C         3.540388        -1.304292         0.925852
 C         4.108693        -0.371371        -0.108136
 O         4.004900         1.045146         0.197462
 C         2.765270         1.052196        -0.585023
 C         3.051351        -0.194471        -1.313780
 O         1.793315        -0.813521        -1.084748
 H         0.033347         1.161076         1.156199
 H        -0.151828         0.851125        -0.640374
 H        -0.479050        -0.300508         0.485601
 H         2.379289        -0.028657         2.280486
 H         1.597365        -1.420144         1.718829
 H         4.284299        -1.541396         1.711191
 H         3.178635        -2.284678         0.540862
 H         5.157428        -0.578080        -0.423730
 H         2.368098         1.963474        -0.972525
 H         3.317275        -0.206181        -2.339023
