19
Iteration:   755charge 0 multiplicity 1
 C         0.151497         0.462052         0.206646
 C         1.558076         0.020456         0.099363
 C         2.202708        -0.470419         1.410104
 C         3.541881        -1.178792         0.985803
 C         4.151448        -0.427907        -0.246342
 O         4.030023         0.917656         0.162950
 C         2.723652         1.053246        -0.460316
 C         3.066793        -0.111658        -1.334916
 O         1.811741        -0.888176        -0.968820
 H         0.027073         1.494738         0.584994
 H        -0.222912         0.267894        -0.887921
 H        -0.435674        -0.265859         0.850687
 H         2.408943         0.314975         2.191936
 H         1.547301        -1.177959         1.921442
 H         4.362591        -0.965586         1.696793
 H         3.340035        -2.220469         0.657133
 H         5.135915        -0.712893        -0.549220
 H         2.282523         2.010240        -0.794818
 H         3.352826        -0.155959        -2.372188
