19
Iteration:  2292
 C         0.127427         0.430681         0.229844
 C         1.639147         0.119266         0.190913
 C         2.242890        -0.595661         1.423972
 C         3.602009        -1.312624         0.937823
 C         4.126931        -0.335324        -0.133524
 O         4.035164         1.118634         0.093356
 C         2.763563         1.085144        -0.522792
 C         3.042280        -0.249050        -1.278259
 O         1.688635        -0.860818        -1.017672
 H        -0.275818         1.090904         0.940459
 H        -0.061868         0.819940        -0.745894
 H        -0.374232        -0.578317         0.275889
 H         2.524014         0.088110         2.227774
 H         1.561998        -1.403344         1.902683
 H         4.370467        -1.586391         1.708282
 H         3.110737        -2.210037         0.364301
 H         5.207808        -0.477047        -0.401330
 H         2.408905         2.003570        -1.009224
 H         3.433214        -0.345348        -2.319864
