19
Iteration:  1986
 C         0.192487         0.504976         0.216382
 C         1.599053         0.043871         0.082817
 C         2.319058        -0.557967         1.385398
 C         3.611694        -1.233627         0.960912
 C         4.118593        -0.426225        -0.168370
 O         3.930748         1.072612         0.249631
 C         2.706963         1.027147        -0.545234
 C         3.008772        -0.242416        -1.258292
 O         1.752365        -0.865999        -1.044662
 H         0.109505         1.289119         0.992731
 H        -0.195914         0.922605        -0.788592
 H        -0.416160        -0.427549         0.287434
 H         2.645566         0.378774         1.897282
 H         1.736334        -1.165938         2.198244
 H         4.286819        -1.347749         1.823026
 H         3.438961        -2.174141         0.375573
 H         5.147299        -0.374798        -0.598788
 H         2.256404         1.957040        -0.973946
 H         3.394796        -0.524708        -2.244308
