19
Iteration:  3569
 C         0.176306         0.625606         0.275713
 C         1.656212        -0.023539         0.078770
 C         2.281447        -0.644599         1.331167
 C         3.643835        -1.226573         1.053234
 C         4.136669        -0.433874        -0.237722
 O         3.937800         1.045685         0.252484
 C         2.668282         1.007366        -0.448096
 C         2.958873        -0.195836        -1.350941
 O         1.779171        -0.836258        -1.132175
 H         0.297532         1.331157         1.090201
 H        -0.032261         0.954569        -0.776310
 H        -0.629066        -0.147937         0.559342
 H         2.123909         0.168366         2.103463
 H         1.723647        -1.442370         1.767730
 H         4.321049        -1.053367         1.907084
 H         3.598714        -2.332941         1.043249
 H         5.179210        -0.570108        -0.409975
 H         2.434882         2.026252        -0.886865
 H         3.265596        -0.359749        -2.425187
