19
Iteration:  3724charge 0 multiplicity 1
 C         0.218143         0.632295         0.200595
 C         1.618826         0.116667         0.159183
 C         2.159247        -0.750594         1.324186
 C         3.584143        -1.231829         0.927868
 C         4.168481        -0.414284        -0.182400
 O         3.980467         1.101169         0.135803
 C         2.678053         1.060036        -0.499975
 C         3.041970        -0.204690        -1.254817
 O         1.826841        -0.940068        -0.920839
 H         0.048791         1.368259         1.044914
 H        -0.034800         1.236046        -0.677376
 H        -0.455224        -0.315284         0.251699
 H         2.295114        -0.192846         2.229649
 H         1.545510        -1.634120         1.418305
 H         4.167514        -1.540880         1.770465
 H         3.235151        -2.171857         0.457878
 H         5.176272        -0.542843        -0.448231
 H         2.370713         2.081013        -0.917290
 H         3.128913        -0.126810        -2.332256
