19
Iteration:  1499charge 0 multiplicity 1
 C         0.235974         0.642705         0.258730
 C         1.599239         0.057756         0.081293
 C         2.229413        -0.578310         1.332405
 C         3.611857        -1.136039         1.005173
 C         4.147575        -0.386058        -0.180480
 O         3.838630         0.993624         0.248998
 C         2.680094         0.940007        -0.561658
 C         3.076079        -0.289166        -1.318959
 O         1.817262        -0.926355        -1.053337
 H         0.248210         1.476298         0.986310
 H        -0.209086         0.779418        -0.734076
 H        -0.407104        -0.192209         0.711393
 H         2.395946         0.282425         2.088708
 H         1.413870        -1.217625         1.765247
 H         4.493090        -0.966999         1.748542
 H         3.465461        -2.221590         0.945316
 H         5.217114        -0.513275        -0.389688
 H         2.404307         1.966830        -0.990303
 H         3.532540        -0.259053        -2.334541
