19
Iteration:  1046charge 0 multiplicity 1
 C         0.180220         0.498617         0.186935
 C         1.624192         0.084485         0.126636
 C         2.295373        -0.474573         1.431511
 C         3.664504        -1.195735         0.978941
 C         4.127164        -0.375426        -0.182958
 O         3.908961         1.025428         0.235775
 C         2.666344         0.941255        -0.538999
 C         3.090621        -0.306060        -1.290017
 O         1.711221        -0.849100        -1.070245
 H        -0.164423         1.031747         1.158895
 H         0.055405         1.184000        -0.597512
 H        -0.386950        -0.397572         0.156564
 H         2.469071         0.419585         1.965660
 H         1.585994        -1.198746         1.883602
 H         4.279961        -1.243799         1.841679
 H         3.660984        -2.296461         0.701934
 H         5.165122        -0.587746        -0.586183
 H         2.400350         1.874042        -1.026036
 H         3.243172        -0.448580        -2.361922
