19
Iteration:  4034charge 0 multiplicity 1
 C         0.243036         0.451141         0.300227
 C         1.664883         0.106907         0.055124
 C         2.221153        -0.580877         1.336265
 C         3.578219        -1.151262         1.000377
 C         4.045397        -0.380165        -0.185918
 O         3.963100         0.954641         0.251189
 C         2.766988         1.094241        -0.550649
 C         3.042130        -0.267450        -1.335770
 O         1.735924        -0.873088        -1.051134
 H         0.174091         0.881256         1.325634
 H        -0.030250         1.278790        -0.446791
 H        -0.516059        -0.328353         0.058615
 H         2.129539         0.193506         2.064387
 H         1.451920        -1.348056         1.660079
 H         4.280148        -0.884124         1.772413
 H         3.612296        -2.234168         1.101745
 H         5.094654        -0.625391        -0.512140
 H         2.565494         2.057839        -0.961608
 H         3.327415        -0.341682        -2.372720
