19
Iteration:  1905charge 0 multiplicity 1
 C         0.195827         0.600680         0.176692
 C         1.600491         0.076311         0.192007
 C         2.196066        -0.704114         1.389894
 C         3.649742        -1.193756         1.001479
 C         4.171035        -0.386859        -0.217174
 O         3.937548         1.065505         0.134889
 C         2.700058         1.014550        -0.522407
 C         3.077239        -0.261921        -1.289549
 O         1.735541        -0.876611        -0.995281
 H         0.003254         1.324521         0.997397
 H         0.124604         1.150196        -0.791555
 H        -0.621391        -0.115841         0.288260
 H         2.163426        -0.230432         2.391948
 H         1.574220        -1.605584         1.422284
 H         4.386030        -0.988243         1.818728
 H         3.699241        -2.261500         0.734255
 H         5.201918        -0.308310        -0.364948
 H         2.318100         1.941691        -0.812390
 H         3.310113        -0.439724        -2.360970
