19
Iteration:  4005
 C         0.103300         0.579132         0.309881
 C         1.596361         0.092219         0.132323
 C         2.150040        -0.726970         1.390052
 C         3.561258        -1.252194         0.962040
 C         4.214994        -0.345355        -0.095476
 O         4.029134         1.146757         0.085078
 C         2.770037         0.999368        -0.564093
 C         3.075773        -0.282931        -1.324198
 O         1.773578        -0.866919        -1.029073
 H         0.061019         1.257713         1.110073
 H        -0.163653         1.248162        -0.433602
 H        -0.608988        -0.258084         0.343910
 H         2.024212        -0.113691         2.312018
 H         1.496334        -1.502979         1.597384
 H         4.235547        -1.429944         1.855671
 H         3.487907        -2.259766         0.623435
 H         5.243816        -0.596042        -0.120056
 H         2.429153         1.811447        -1.207282
 H         3.311006        -0.161020        -2.379837
