19
Iteration:  4402
 C         0.114903         0.388038         0.246410
 C         1.601085         0.141254         0.109018
 C         2.166880        -0.510689         1.369894
 C         3.554048        -1.176713         0.948320
 C         4.133483        -0.431240        -0.199259
 O         4.061603         1.025365         0.177170
 C         2.839475         1.055016        -0.523351
 C         3.016764        -0.216914        -1.298623
 O         1.764410        -0.897079        -0.980096
 H        -0.046947         0.892307         1.178294
 H        -0.264142         1.028088        -0.570090
 H        -0.386724        -0.535791         0.099760
 H         2.359004         0.246946         2.065749
 H         1.414864        -1.143593         1.867276
 H         4.171883        -1.202111         1.768008
 H         3.412497        -2.205818         0.606473
 H         5.135798        -0.727455        -0.373174
 H         2.654031         2.035445        -0.962424
 H         3.233929        -0.196828        -2.333262
