19
Iteration:  1082charge 0 multiplicity 1
 C         0.150514         0.400329         0.186373
 C         1.610069         0.101341         0.166571
 C         2.112064        -0.460030         1.412869
 C         3.423721        -1.282724         0.956559
 C         4.152213        -0.383615        -0.242059
 O         4.123803         1.073916         0.048745
 C         2.684280         1.022262        -0.473652
 C         3.037438        -0.173006        -1.296182
 O         1.897210        -0.910390        -0.876479
 H         0.003080         1.192879         0.926549
 H        -0.308610         0.538096        -0.869858
 H        -0.363104        -0.593832         0.362233
 H         2.598275         0.095347         2.210963
 H         1.372400        -1.005355         1.962108
 H         4.310716        -1.395611         1.678894
 H         3.185918        -2.152145         0.380485
 H         5.205456        -0.704050        -0.454292
 H         2.309229         2.084880        -0.815141
 H         3.330070        -0.140061        -2.333485
