19
Iteration:  2086
 C         0.214753         0.519158         0.310285
 C         1.634112         0.006288         0.132570
 C         2.214315        -0.663606         1.340976
 C         3.589014        -1.150642         1.069202
 C         4.200005        -0.389793        -0.150852
 O         3.954460         1.102868         0.181683
 C         2.675135         1.042562        -0.625231
 C         3.086209        -0.232541        -1.353189
 O         1.686328        -0.906082        -1.111995
 H         0.224931         1.107195         1.325418
 H        -0.187628         1.184578        -0.407254
 H        -0.341275        -0.445596         0.585313
 H         2.220154         0.262198         1.989425
 H         1.503905        -1.369972         1.854091
 H         4.234498        -1.018103         1.933673
 H         3.613471        -2.238235         0.890211
 H         5.235823        -0.661439        -0.405494
 H         2.528473         2.036381        -0.906236
 H         3.364803        -0.355085        -2.340704
