19
Iteration:  4508charge 0 multiplicity 1
 C         0.206615         0.559196         0.232994
 C         1.591993         0.053719         0.120395
 C         2.248772        -0.595946         1.376298
 C         3.678396        -1.112444         0.988632
 C         4.108603        -0.421907        -0.158087
 O         3.922052         0.975283         0.233821
 C         2.754482         1.010970        -0.542123
 C         3.021607        -0.276594        -1.277190
 O         1.712791        -0.844459        -1.135861
 H         0.111500         1.539579         0.786815
 H        -0.229962         0.663825        -0.785430
 H        -0.327422        -0.139044         0.852712
 H         2.294670         0.245160         2.132860
 H         1.723366        -1.479854         1.692693
 H         4.344820        -1.048422         1.915121
 H         3.605049        -2.195027         0.771098
 H         5.147011        -0.524495        -0.391903
 H         2.454434         2.019821        -0.854868
 H         3.404711        -0.552212        -2.253909
