19
Iteration:  2544
 C         0.210371         0.490352         0.309478
 C         1.630707         0.068034         0.079250
 C         2.248330        -0.580546         1.311629
 C         3.614558        -1.148084         1.004551
 C         4.123190        -0.370642        -0.260014
 O         3.897774         0.980264         0.286543
 C         2.668656         1.002490        -0.521189
 C         3.063321        -0.249031        -1.313348
 O         1.779246        -0.844155        -1.079705
 H         0.188685         1.401439         1.063544
 H        -0.142166         0.746787        -0.672208
 H        -0.584931        -0.269764         0.749224
 H         2.333316         0.142656         2.043261
 H         1.730834        -1.474536         1.769504
 H         4.321769        -1.110913         1.837259
 H         3.615820        -2.139765         0.733929
 H         5.214356        -0.540106        -0.686657
 H         2.366708         1.996611        -0.816083
 H         3.425987        -0.254266        -2.329041
