19
Iteration:  1595
 C         0.162995         0.575281         0.261187
 C         1.632416         0.140265         0.066181
 C         2.183250        -0.500627         1.317074
 C         3.604061        -1.119117         1.025481
 C         4.220213        -0.407419        -0.177820
 O         3.891385         0.966127         0.248573
 C         2.728506         1.028043        -0.511749
 C         3.018022        -0.359810        -1.364028
 O         1.796780        -0.948195        -1.036507
 H         0.097683         0.883027         1.280517
 H        -0.194715         1.261446        -0.571515
 H        -0.549775        -0.279115         0.162447
 H         2.125079         0.144939         2.235666
 H         1.690167        -1.444593         1.575508
 H         4.308417        -0.862424         1.800705
 H         3.883309        -2.229933         0.964157
 H         5.317069        -0.397433        -0.503252
 H         2.512452         1.909133        -0.975985
 H         3.219031        -0.327467        -2.429631
