19
Iteration:  1673
 C         0.113373         0.523722         0.124056
 C         1.618428         0.145609         0.122880
 C         2.209835        -0.568055         1.338905
 C         3.595040        -1.246623         0.969569
 C         4.160616        -0.449293        -0.213115
 O         3.921495         1.047460         0.203237
 C         2.739023         1.017880        -0.493244
 C         3.043782        -0.209053        -1.286329
 O         1.822287        -0.916627        -0.911052
 H        -0.137714         1.489630         0.631932
 H        -0.236363         0.612532        -0.873624
 H        -0.326547        -0.308847         0.776677
 H         2.358776         0.348462         2.039014
 H         1.621418        -1.297936         1.893412
 H         4.433323        -0.919106         1.602988
 H         3.557510        -2.310405         0.649115
 H         5.173541        -0.674251        -0.651213
 H         2.442174         1.943095        -0.838893
 H         3.466357        -0.320500        -2.323783
