19
Iteration:  1661
 C         0.154192         0.533904         0.168328
 C         1.566961         0.065988         0.145877
 C         2.186325        -0.582598         1.375938
 C         3.550078        -1.161976         0.895732
 C         4.109573        -0.346262        -0.213040
 O         4.018418         1.046616         0.191836
 C         2.715228         1.072772        -0.554558
 C         3.039521        -0.250521        -1.288430
 O         1.897298        -0.969986        -0.896500
 H         0.161188         1.448285         0.765964
 H        -0.286967         0.696623        -0.838995
 H        -0.595773        -0.205082         0.593527
 H         2.349348         0.014361         2.316789
 H         1.459249        -1.373059         1.561013
 H         4.151870        -1.291752         1.805456
 H         3.365273        -2.274056         0.716068
 H         5.203704        -0.625149        -0.344829
 H         2.523894         2.041761        -0.951695
 H         3.176873        -0.404501        -2.375943
