19
Iteration:  3024
 C         0.201493         0.472692         0.233338
 C         1.592714         0.059522         0.130817
 C         2.225081        -0.575245         1.369701
 C         3.617934        -1.249428         0.992836
 C         4.161076        -0.454458        -0.197263
 O         3.983232         1.065089         0.185284
 C         2.684782         1.006270        -0.503199
 C         3.037407        -0.197218        -1.244666
 O         1.750403        -0.828789        -1.076673
 H         0.263439         1.279534         0.968580
 H        -0.294683         1.094396        -0.557859
 H        -0.601230        -0.327041         0.212982
 H         2.489640         0.308287         1.971307
 H         1.500193        -1.238127         1.856408
 H         4.231892        -1.126910         1.882390
 H         3.572083        -2.265450         0.640883
 H         5.140372        -0.729529        -0.583914
 H         2.338043         1.967169        -0.920283
 H         3.392465        -0.261918        -2.258693
