19
Iteration:   372charge 0 multiplicity 1
 C         0.265413         0.579826         0.112247
 C         1.622198        -0.047839         0.157184
 C         2.119676        -0.741028         1.431386
 C         3.659348        -1.098850         1.119433
 C         4.058132        -0.381697        -0.134837
 O         4.049043         1.093483         0.023301
 C         2.712172         1.020584        -0.489700
 C         3.051956        -0.256446        -1.299356
 O         1.697094        -0.877242        -1.016735
 H         0.212266         1.437385         0.747797
 H        -0.001910         1.096387        -0.864676
 H        -0.678410        -0.006781         0.331450
 H         2.025524         0.018377         2.272058
 H         1.570777        -1.627089         1.668754
 H         4.294880        -0.790441         1.954483
 H         3.929328        -2.204757         0.849992
 H         5.050237        -0.569688        -0.422003
 H         2.331044         1.968925        -0.836510
 H         3.476505        -0.451464        -2.237630
