19
Iteration:  4147
 C         0.218190         0.552717         0.268634
 C         1.622795         0.005917         0.158594
 C         2.166083        -0.587367         1.376142
 C         3.657532        -1.151358         1.024616
 C         4.207461        -0.393119        -0.081630
 O         3.994489         1.021584         0.188989
 C         2.654882         0.926760        -0.506790
 C         2.998799        -0.241052        -1.343908
 O         1.702557        -0.841956        -1.232586
 H         0.390759         1.534009         0.810925
 H        -0.332540         0.804809        -0.653121
 H        -0.508218        -0.065661         0.896151
 H         2.347011         0.266729         2.114044
 H         1.655455        -1.364605         1.885463
 H         4.391908        -1.092050         1.932032
 H         3.621820        -2.214861         0.835734
 H         5.230017        -0.530872        -0.470967
 H         2.252200         1.969905        -0.712133
 H         3.502017        -0.307527        -2.369808
