19
Iteration:  4120charge 0 multiplicity 1
 C         0.158251         0.577054         0.244976
 C         1.624364         0.054201         0.113227
 C         2.231512        -0.656688         1.320632
 C         3.598688        -1.210606         0.980029
 C         4.096277        -0.423303        -0.147262
 O         3.951748         1.029967         0.202816
 C         2.680202         1.040836        -0.569797
 C         3.056880        -0.187641        -1.302874
 O         1.829854        -0.902181        -1.006116
 H         0.276774         1.565091         0.686830
 H        -0.419680         0.901902        -0.661493
 H        -0.421721        -0.072439         0.902199
 H         2.388168         0.110339         2.044119
 H         1.661369        -1.468945         1.887809
 H         4.340391        -1.106750         1.743233
 H         3.449437        -2.289466         0.694238
 H         5.107442        -0.562684        -0.541407
 H         2.394229         2.010280        -0.916954
 H         3.379950        -0.234003        -2.325394
