19
Iteration:  4917charge 0 multiplicity 1
 C         0.180909         0.586203         0.320609
 C         1.607614         0.006193         0.115035
 C         2.232601        -0.617468         1.249835
 C         3.656227        -1.179272         1.042676
 C         4.132606        -0.367871        -0.210760
 O         3.935415         1.004017         0.227510
 C         2.664610         1.009183        -0.500369
 C         3.039394        -0.205772        -1.320472
 O         1.802049        -0.895084        -1.060643
 H         0.193746         1.577847         0.712543
 H        -0.208889         0.627710        -0.653020
 H        -0.565747        -0.051114         0.778524
 H         2.306475         0.214654         1.947460
 H         1.684812        -1.478474         1.733735
 H         4.385617        -0.932772         1.809323
 H         3.454547        -2.263590         0.914110
 H         5.149202        -0.684615        -0.423844
 H         2.336079         1.974856        -1.088051
 H         3.313392        -0.276906        -2.430702
