19
Iteration:  1006
 C         0.269168         0.652034         0.378309
 C         1.626147         0.027225         0.100834
 C         2.065625        -0.763938         1.315546
 C         3.571301        -1.089543         1.082715
 C         4.096029        -0.309217        -0.181596
 O         3.989576         1.112047         0.084268
 C         2.678867         0.991413        -0.607092
 C         3.069495        -0.301308        -1.306831
 O         1.845316        -0.962407        -1.024318
 H         0.378829         1.116611         1.371919
 H        -0.100465         1.394050        -0.427840
 H        -0.528506        -0.152889         0.349207
 H         1.916500        -0.321003         2.362336
 H         1.509328        -1.706904         1.240221
 H         4.403305        -0.829685         1.878683
 H         3.647126        -2.181622         1.031964
 H         5.135870        -0.547314        -0.481408
 H         2.224004         1.959214        -1.066348
 H         3.553132        -0.376714        -2.278295
