19
Iteration:  2664
 C         0.225701         0.474358         0.246809
 C         1.611247         0.002003         0.130657
 C         2.170252        -0.696478         1.373969
 C         3.601929        -1.234394         0.997143
 C         4.097068        -0.395380        -0.087550
 O         4.015982         1.147359         0.066661
 C         2.736469         1.127085        -0.554900
 C         3.049888        -0.248960        -1.289473
 O         1.746175        -0.832077        -0.998103
 H         0.157569         1.013545         1.254202
 H         0.048003         1.148801        -0.521893
 H        -0.635924        -0.284488         0.310669
 H         2.254208         0.053455         2.153133
 H         1.408129        -1.485212         1.589746
 H         4.249675        -1.386367         1.953264
 H         3.524879        -2.171254         0.415065
 H         5.181769        -0.669647        -0.428708
 H         2.395741         2.080235        -0.979523
 H         3.328290        -0.448396        -2.316514
