19
Iteration:  4071
 C         0.144697         0.530058         0.189440
 C         1.565407         0.021765         0.131934
 C         2.273813        -0.560178         1.389144
 C         3.561850        -1.297669         0.959625
 C         4.099426        -0.375704        -0.137950
 O         4.021454         1.036065         0.083433
 C         2.631096         1.055101        -0.472381
 C         3.044194        -0.225101        -1.210642
 O         1.821980        -0.868927        -1.030800
 H        -0.080701         1.228615         0.973060
 H         0.078583         1.223720        -0.600961
 H        -0.563274        -0.297865         0.101521
 H         2.648825         0.092851         2.252389
 H         1.614808        -1.202433         1.900519
 H         4.414457        -1.297496         1.711808
 H         3.503924        -2.255613         0.454637
 H         5.133947        -0.583809        -0.373813
 H         2.524438         2.104862        -0.850372
 H         3.397599        -0.241021        -2.274007
