19
Iteration:  2652charge 0 multiplicity 1
 C         0.215449         0.539239         0.236743
 C         1.618274         0.009195         0.157282
 C         2.187135        -0.627754         1.383565
 C         3.595947        -1.220605         1.015577
 C         4.137608        -0.334508        -0.194422
 O         4.027034         1.063211         0.136969
 C         2.718271         0.988571        -0.495704
 C         2.948055        -0.177530        -1.330798
 O         1.788793        -0.894342        -1.051295
 H        -0.002854         1.116324         1.140161
 H         0.049426         1.177185        -0.551311
 H        -0.477592        -0.346058         0.051035
 H         2.145672         0.103563         2.228172
 H         1.575277        -1.476696         1.754015
 H         4.376509        -1.108062         1.875364
 H         3.504055        -2.312547         0.835239
 H         5.211192        -0.562625        -0.466143
 H         2.278980         1.956612        -0.803432
 H         3.255503        -0.141004        -2.376126
