19
Iteration:  4238
 C         0.245339         0.509095         0.215517
 C         1.611913         0.051987         0.079962
 C         2.298639        -0.478788         1.331433
 C         3.655841        -1.250088         1.034070
 C         4.076639        -0.416976        -0.111501
 O         3.938675         1.001722         0.245152
 C         2.724156         1.015301        -0.545489
 C         2.967644        -0.184394        -1.361467
 O         1.715045        -0.921186        -1.057397
 H         0.027079         1.027862         1.172791
 H         0.008213         1.255593        -0.592898
 H        -0.360015        -0.359977         0.008561
 H         2.483930         0.415643         1.935831
 H         1.502296        -1.036823         1.914020
 H         4.415347        -1.176203         1.807895
 H         3.507959        -2.385025         0.754248
 H         5.072370        -0.648558        -0.451364
 H         2.277096         2.055861        -0.668521
 H         3.655259        -0.168062        -2.268232
