19
Iteration:  3521
 C         0.130144         0.475769         0.331383
 C         1.632330         0.112660         0.124371
 C         2.140443        -0.580565         1.339914
 C         3.524739        -1.261032         0.933532
 C         4.100472        -0.399252        -0.180158
 O         4.009972         1.094751         0.168535
 C         2.748492         1.074994        -0.629493
 C         3.070338        -0.167672        -1.333254
 O         1.876490        -0.940997        -0.932724
 H         0.140037         0.950480         1.382897
 H        -0.138010         1.250406        -0.451414
 H        -0.505185        -0.391639         0.285139
 H         2.121215        -0.006352         2.229430
 H         1.457912        -1.438578         1.536940
 H         4.068750        -1.548355         1.821764
 H         3.438364        -2.163218         0.370375
 H         5.145317        -0.759274        -0.495133
 H         2.466812         2.046897        -0.845796
 H         3.478904        -0.226712        -2.314640
