19
Iteration:  1476
 C         0.229102         0.609246         0.295616
 C         1.574755        -0.001501         0.050438
 C         2.167296        -0.734292         1.370856
 C         3.589324        -1.191689         1.073808
 C         4.147501        -0.310427        -0.035438
 O         4.038674         1.164195         0.056457
 C         2.692804         1.005240        -0.560746
 C         3.052515        -0.280021        -1.314912
 O         1.750137        -0.911096        -1.085557
 H         0.389785         1.370182         1.060565
 H        -0.056587         0.839520        -0.777278
 H        -0.595382        -0.097592         0.668083
 H         2.026278         0.091157         2.227208
 H         1.416758        -1.528473         1.726381
 H         4.313566        -1.132920         1.977002
 H         3.479346        -2.304048         0.862864
 H         5.153629        -0.699051        -0.313284
 H         2.312245         1.988364        -0.926691
 H         3.517390        -0.503553        -2.275554
