19
Iteration:  1094
 C         0.141103         0.394611         0.173423
 C         1.617065         0.087480         0.195651
 C         2.205913        -0.562962         1.492219
 C         3.481955        -1.196028         0.904717
 C         4.157576        -0.399742        -0.152751
 O         4.082186         1.111325         0.028018
 C         2.755110         1.034541        -0.492673
 C         3.064487        -0.233179        -1.252985
 O         1.776597        -0.871015        -0.987079
 H        -0.184198         1.247575         0.753880
 H        -0.151398         0.725392        -0.889794
 H        -0.419701        -0.414240         0.706264
 H         2.268376         0.322222         2.132934
 H         1.530099        -1.316065         1.840144
 H         4.114859        -1.525073         1.815217
 H         3.154820        -2.128600         0.535378
 H         5.156063        -0.737790        -0.419397
 H         2.341142         2.010060        -0.942942
 H         3.394816        -0.292507        -2.270889
