19
Iteration:  4725charge 0 multiplicity 1
 C         0.178132         0.604884         0.203235
 C         1.605841         0.106143         0.179352
 C         2.322562        -0.572478         1.325340
 C         3.595886        -1.232197         0.957664
 C         4.145968        -0.397011        -0.124255
 O         3.881048         1.043878         0.165779
 C         2.688286         0.986861        -0.496637
 C         3.028151        -0.267426        -1.281409
 O         1.795871        -0.924589        -1.056394
 H         0.003970         1.401617         1.004429
 H        -0.131573         0.875505        -0.826490
 H        -0.453759        -0.290549         0.478936
 H         2.569779         0.262922         2.093236
 H         1.692333        -1.282558         1.840685
 H         4.304760        -1.126551         1.809017
 H         3.557768        -2.258968         0.701181
 H         5.166877        -0.638749        -0.569128
 H         2.391109         1.978344        -0.815378
 H         3.302897        -0.348955        -2.299209
