19
Iteration:  3219charge 0 multiplicity 1
 C         0.141189         0.565278         0.189193
 C         1.601028         0.097328         0.100149
 C         2.173003        -0.654231         1.319090
 C         3.662058        -1.205233         0.950469
 C         4.144537        -0.400258        -0.210318
 O         4.008171         1.002516         0.180502
 C         2.673572         1.077092        -0.426650
 C         2.984520        -0.204972        -1.321229
 O         1.848798        -0.926249        -0.928250
 H        -0.060338         1.320354         0.917077
 H         0.028832         1.073640        -0.799790
 H        -0.620199        -0.213380         0.426688
 H         2.269763        -0.044504         2.275107
 H         1.348952        -1.257526         1.596444
 H         4.406761        -1.229897         1.721618
 H         3.497620        -2.252372         0.693583
 H         5.120346        -0.614822        -0.596882
 H         2.492300         2.155462        -0.803386
 H         3.265641        -0.232856        -2.343567
