19
Iteration:   474
 C         0.132799         0.442951         0.165543
 C         1.637681         0.130333         0.096192
 C         2.241853        -0.352998         1.350466
 C         3.560699        -1.219961         0.958032
 C         4.144458        -0.425680        -0.178769
 O         3.947888         0.949607         0.226194
 C         2.731373         1.044819        -0.546441
 C         3.028551        -0.228930        -1.304313
 O         1.834856        -0.958659        -0.909956
 H        -0.281987         1.154804         0.863921
 H        -0.239170         0.825414        -0.881142
 H        -0.484514        -0.452851         0.422306
 H         2.343308         0.451186         2.073891
 H         1.642691        -1.142470         1.843377
 H         4.295027        -1.188814         1.823177
 H         3.381543        -2.257140         0.560407
 H         5.175968        -0.633080        -0.621746
 H         2.549107         2.079644        -0.899617
 H         3.383982        -0.154977        -2.398461
