19
Iteration:   261
 C         0.124369         0.575163         0.135374
 C         1.648479         0.117480         0.149983
 C         2.051305        -0.677243         1.338672
 C         3.567164        -1.081384         1.020843
 C         4.174090        -0.366829        -0.225713
 O         4.100970         1.074462         0.105006
 C         2.751634         1.078975        -0.575715
 C         3.019342        -0.306073        -1.312442
 O         1.829963        -0.981384        -0.813412
 H        -0.175194         1.284854         1.048702
 H        -0.192436         0.918056        -0.818687
 H        -0.222313        -0.405535         0.415236
 H         1.746408        -0.276144         2.331314
 H         1.491672        -1.628651         1.249293
 H         4.131125        -0.828435         1.934873
 H         3.522005        -2.251471         0.802846
 H         5.190418        -0.612056        -0.477002
 H         2.347466         2.088389        -0.887857
 H         3.255089        -0.627300        -2.305730
