19
Iteration:  4055charge 0 multiplicity 1
 C         0.141964         0.553823         0.211572
 C         1.600836         0.020898         0.159952
 C         2.239089        -0.532110         1.399953
 C         3.622400        -1.177331         1.041651
 C         4.189682        -0.452503        -0.242648
 O         3.969342         1.017452         0.218862
 C         2.724878         0.961349        -0.475766
 C         3.015720        -0.183193        -1.392275
 O         1.770782        -0.866380        -1.097166
 H        -0.049769         0.971252         1.243663
 H        -0.222873         1.339974        -0.570497
 H        -0.503328        -0.343729         0.018848
 H         2.342353         0.341523         2.049231
 H         1.597386        -1.225005         2.064045
 H         4.219619        -1.250872         1.916601
 H         3.453311        -2.286480         0.852557
 H         5.244319        -0.759241        -0.523693
 H         2.233867         1.887024        -0.714340
 H         3.446536        -0.155957        -2.389454
