19
Iteration:  1936
 C         0.162361         0.472542         0.285022
 C         1.584264         0.026491         0.158920
 C         2.146624        -0.669263         1.349783
 C         3.529078        -1.198651         1.042005
 C         4.094883        -0.377870        -0.161376
 O         4.105940         1.140527         0.044836
 C         2.782545         1.078198        -0.522865
 C         3.074435        -0.251134        -1.288364
 O         1.756407        -0.888980        -1.031936
 H         0.163316         1.040343         1.243129
 H         0.001407         1.165490        -0.448403
 H        -0.630615        -0.292927         0.199531
 H         2.186695        -0.081207         2.270674
 H         1.473575        -1.417189         1.547553
 H         4.259982        -1.044065         1.839331
 H         3.536730        -2.195390         0.615340
 H         5.161629        -0.486281        -0.293652
 H         2.194324         1.969603        -0.902076
 H         3.385364        -0.416613        -2.312258
