19
Iteration:  4780
 C         0.098860         0.517052         0.290935
 C         1.569815         0.077936         0.110974
 C         2.179186        -0.572507         1.357868
 C         3.602199        -1.197305         1.016204
 C         4.157929        -0.409647        -0.211099
 O         4.065970         1.056478         0.122788
 C         2.692037         1.023656        -0.569201
 C         3.095329        -0.206816        -1.293744
 O         1.805188        -0.932428        -0.982868
 H        -0.046211         0.685567         1.401552
 H        -0.264303         1.446775        -0.201269
 H        -0.522269        -0.318643        -0.064011
 H         2.159827         0.183579         2.200309
 H         1.445925        -1.320010         1.599206
 H         4.294663        -0.855922         1.772648
 H         3.580078        -2.236302         0.911714
 H         5.037911        -0.832114        -0.695443
 H         2.280640         1.914987        -0.950204
 H         3.374082        -0.214262        -2.310826
