19
Iteration:  4165
 C         0.208982         0.549550         0.297732
 C         1.619595         0.053790         0.087290
 C         2.224124        -0.649100         1.403716
 C         3.619813        -1.201873         1.044211
 C         4.079898        -0.416100        -0.180957
 O         3.922063         1.039329         0.145776
 C         2.741648         1.032646        -0.562374
 C         3.106501        -0.220021        -1.329276
 O         1.772345        -0.831276        -1.037256
 H         0.067757         1.425316         0.886730
 H        -0.199013         0.877851        -0.684768
 H        -0.343212        -0.333613         0.665648
 H         2.115224         0.010788         2.221467
 H         1.437399        -1.443839         1.570439
 H         4.216569        -1.074513         1.921812
 H         3.508315        -2.251294         0.741034
 H         5.130979        -0.669839        -0.410743
 H         2.473418         1.880200        -1.096197
 H         3.293295        -0.306095        -2.349260
