19
Iteration:  2503
 C         0.213334         0.577401         0.180460
 C         1.582574        -0.021765         0.205011
 C         2.175648        -0.747253         1.365229
 C         3.651531        -1.168465         0.931329
 C         4.161650        -0.347112        -0.213097
 O         3.999808         1.097875         0.084111
 C         2.633986         1.062005        -0.445860
 C         3.037420        -0.177896        -1.237857
 O         1.794151        -0.917439        -0.962568
 H        -0.035777         1.275131         1.053777
 H         0.138883         1.181944        -0.709882
 H        -0.492195        -0.227080         0.152792
 H         2.222544         0.024301         2.215028
 H         1.518561        -1.686783         1.455523
 H         4.340425        -1.148812         1.790912
 H         3.445294        -2.225303         0.561826
 H         5.161619        -0.771899        -0.531637
 H         2.211470         2.001303        -0.763009
 H         3.330586        -0.203386        -2.262292
