19
Iteration:  1095
 C         0.137161         0.403616         0.176658
 C         1.621888         0.084488         0.199321
 C         2.213273        -0.566131         1.490349
 C         3.487428        -1.192097         0.911014
 C         4.153898        -0.399017        -0.146670
 O         4.077662         1.111117         0.031269
 C         2.757337         1.037279        -0.498855
 C         3.066254        -0.236618        -1.253065
 O         1.770380        -0.868529        -0.995094
 H        -0.144562         1.262522         0.749041
 H        -0.170282         0.689015        -0.896955
 H        -0.446278        -0.439892         0.675712
 H         2.249767         0.323229         2.126530
 H         1.564214        -1.349864         1.842020
 H         4.102972        -1.533248         1.814205
 H         3.179973        -2.129158         0.535790
 H         5.130768        -0.726831        -0.415237
 H         2.376367         1.992235        -0.942562
 H         3.365267        -0.314220        -2.285029
