19
Iteration:  2047
 C         0.204326         0.593417         0.261509
 C         1.585321         0.055552         0.126667
 C         2.204199        -0.666240         1.338129
 C         3.667318        -1.140278         1.016356
 C         4.194523        -0.387130        -0.214528
 O         3.934593         1.035270         0.195351
 C         2.692381         1.034932        -0.529595
 C         3.040517        -0.231413        -1.341748
 O         1.743320        -0.915980        -1.021686
 H         0.060272         1.403301         0.933252
 H        -0.217790         0.771917        -0.784506
 H        -0.454402        -0.167619         0.613046
 H         2.321421        -0.160549         2.282082
 H         1.620437        -1.532286         1.531191
 H         4.278308        -0.815166         1.904378
 H         3.740967        -2.253891         1.028874
 H         5.262258        -0.604045        -0.421806
 H         2.147811         1.933314        -0.977981
 H         3.346003        -0.361167        -2.442525
