19
Iteration:  3748
 C         0.201416         0.597344         0.269105
 C         1.602905        -0.004551         0.127235
 C         2.185583        -0.626862         1.372026
 C         3.586087        -1.200806         0.912562
 C         4.079781        -0.393959        -0.235402
 O         3.947319         0.993561         0.274173
 C         2.695775         1.024814        -0.470708
 C         3.104903        -0.192062        -1.378792
 O         1.809139        -0.906563        -1.055015
 H         0.390359         1.575380         0.806070
 H        -0.005654         0.980676        -0.719795
 H        -0.682780         0.074671         0.659737
 H         2.474252         0.070808         2.114547
 H         1.438966        -1.347001         1.838518
 H         4.310957        -1.001094         1.757287
 H         3.631736        -2.344547         0.829752
 H         5.177844        -0.463758        -0.408241
 H         2.425200         2.070782        -0.763099
 H         3.272142        -0.235062        -2.446824
