19
Iteration:  3402charge 0 multiplicity 1
 C         0.203447         0.538037         0.298549
 C         1.621307         0.031501         0.085019
 C         2.253281        -0.661132         1.366497
 C         3.596549        -1.242285         1.012191
 C         4.191980        -0.359739        -0.096889
 O         3.897073         1.056912         0.194842
 C         2.666494         1.004334        -0.606062
 C         3.075604        -0.257413        -1.262548
 O         1.746331        -0.801840        -1.112635
 H         0.426777         1.391158         0.942289
 H        -0.121317         1.118789        -0.571312
 H        -0.494422        -0.189901         0.732210
 H         2.394001         0.063963         2.157337
 H         1.536551        -1.384359         1.722502
 H         4.184642        -1.308351         1.909171
 H         3.524484        -2.272192         0.737652
 H         5.140445        -0.482377        -0.582858
 H         2.427046         1.775815        -1.291839
 H         3.395588        -0.204865        -2.305250
