19
Iteration:   726charge 0 multiplicity 1
 C         0.174118         0.581503         0.216223
 C         1.621880         0.057817         0.173321
 C         2.171723        -0.721842         1.382607
 C         3.616691        -1.284373         1.031573
 C         4.142586        -0.320457        -0.072897
 O         4.037230         1.166122         0.050202
 C         2.750101         1.077210        -0.618649
 C         3.035998        -0.264383        -1.253651
 O         1.693373        -0.882363        -0.981051
 H        -0.001391         1.539652         0.630306
 H        -0.070304         0.854663        -0.852510
 H        -0.502449        -0.251491         0.503434
 H         2.301579        -0.179274         2.341086
 H         1.578493        -1.638010         1.552105
 H         4.313024        -1.468417         1.865378
 H         3.669832        -2.352829         0.622413
 H         5.182045        -0.612992        -0.397632
 H         2.312508         1.981309        -1.081902
 H         3.385103        -0.680307        -2.261590
