19
Iteration:  3654charge 0 multiplicity 1
 C         0.200409         0.454506         0.311742
 C         1.613396         0.120239         0.056691
 C         2.213918        -0.587981         1.372954
 C         3.532010        -1.200954         0.968571
 C         4.126454        -0.455717        -0.259600
 O         3.947946         1.004078         0.272464
 C         2.762385         1.084317        -0.454480
 C         3.053187        -0.197525        -1.382620
 O         1.792337        -0.887528        -1.077341
 H         0.159344         1.123820         1.193925
 H        -0.349566         1.228889        -0.354473
 H        -0.431017        -0.447526         0.498090
 H         2.334638         0.427631         1.892985
 H         1.435608        -1.145561         1.890160
 H         4.235362        -1.260942         1.805744
 H         3.503427        -2.210065         0.569362
 H         5.207927        -0.721022        -0.507491
 H         2.579152         2.110529        -0.744631
 H         3.474992        -0.348516        -2.399519
