19
Iteration:  2961charge 0 multiplicity 1
 C         0.144040         0.574019         0.270613
 C         1.633798         0.042896         0.183473
 C         2.161325        -0.691762         1.393878
 C         3.562948        -1.227531         0.969821
 C         4.194544        -0.318305        -0.054674
 O         4.033976         1.138922         0.049816
 C         2.705882         1.038411        -0.514869
 C         3.012878        -0.256321        -1.332731
 O         1.788878        -0.914356        -1.064418
 H         0.202254         1.401724         1.177140
 H        -0.008983         1.190863        -0.617642
 H        -0.567481        -0.305680         0.198261
 H         2.326875        -0.104568         2.290714
 H         1.463124        -1.568203         1.795571
 H         4.082654        -1.693205         1.925973
 H         3.424653        -2.140084         0.306804
 H         5.222298        -0.605785        -0.422870
 H         2.237483         1.969875        -0.783621
 H         3.485194        -0.441187        -2.298838
