19
Iteration:  2107charge 0 multiplicity 1
 C         0.150329         0.519242         0.270315
 C         1.612940         0.047065         0.150708
 C         2.195886        -0.533355         1.347739
 C         3.549353        -1.224474         0.908104
 C         4.105120        -0.313376        -0.196846
 O         3.991600         1.052945         0.120291
 C         2.646049         1.059038        -0.548914
 C         3.096182        -0.247859        -1.283223
 O         1.903883        -0.936174        -0.945429
 H         0.112732         1.016751         1.343642
 H        -0.336218         1.259161        -0.395570
 H        -0.419396        -0.488697         0.418207
 H         2.250081        -0.030185         2.344228
 H         1.445740        -1.410826         1.500890
 H         4.241499        -1.195163         1.754980
 H         3.275330        -2.252723         0.508119
 H         5.106216        -0.751240        -0.366651
 H         2.448408         1.950235        -1.051112
 H         3.300493        -0.408853        -2.303603
