19
Iteration:  3464charge 0 multiplicity 1
 C         0.161167         0.545287         0.110442
 C         1.624852         0.121356         0.150876
 C         2.312696        -0.668618         1.422264
 C         3.657695        -1.266496         0.991835
 C         4.117628        -0.358398        -0.212832
 O         3.949953         1.034112         0.245543
 C         2.671123         1.030423        -0.499244
 C         2.964372        -0.266944        -1.323957
 O         1.775360        -0.839702        -1.036092
 H         0.020972         1.452258         0.872415
 H        -0.230747         1.079385        -0.788110
 H        -0.540422        -0.270894         0.379198
 H         2.644902         0.063801         2.159066
 H         1.669883        -1.515658         1.892290
 H         4.239885        -1.062061         1.930241
 H         3.600491        -2.357197         0.684147
 H         5.204584        -0.638227        -0.668273
 H         2.312445         2.097440        -0.772387
 H         3.372870        -0.370954        -2.383205
