19
Iteration:  3077
 C         0.139723         0.633832         0.310941
 C         1.641284         0.073802         0.080613
 C         2.215380        -0.613491         1.273036
 C         3.574561        -1.272004         0.925580
 C         4.137436        -0.370137        -0.200271
 O         3.923812         1.079289         0.250204
 C         2.728671         0.978626        -0.517521
 C         3.049537        -0.225913        -1.347301
 O         1.836135        -0.961142        -0.967397
 H         0.065970         1.464770         1.011742
 H        -0.148274         1.071259        -0.719081
 H        -0.375186        -0.316715         0.732722
 H         2.292424         0.153424         2.126915
 H         1.476961        -1.307410         1.651130
 H         4.218984        -1.103449         1.770997
 H         3.594727        -2.349143         0.702001
 H         5.179674        -0.413242        -0.497433
 H         2.420615         2.060184        -0.874965
 H         3.292573        -0.382779        -2.400976
