19
Iteration:  2256
 C         0.193817         0.573407         0.225977
 C         1.599276         0.065648         0.150416
 C         2.252121        -0.594134         1.420918
 C         3.602516        -1.189932         0.922766
 C         4.103204        -0.331069        -0.311247
 O         3.951141         1.000167         0.262004
 C         2.667710         1.038831        -0.435744
 C         2.974641        -0.186970        -1.396663
 O         1.847556        -1.058412        -1.001894
 H         0.092484         1.417822         0.936613
 H        -0.037860         1.152665        -0.817750
 H        -0.543983        -0.185777         0.398348
 H         2.223512         0.310890         2.053745
 H         1.540680        -1.230854         1.939149
 H         4.440629        -1.025148         1.592246
 H         3.568112        -2.253291         0.854636
 H         5.190918        -0.524621        -0.515228
 H         2.607209         2.225355        -0.664753
 H         3.433529        -0.248670        -2.525513
