19
Iteration:  4426
 C         0.155127         0.529882         0.216371
 C         1.655211         0.113463         0.106230
 C         2.330281        -0.501006         1.387204
 C         3.671743        -1.207521         1.013117
 C         4.082459        -0.424948        -0.245247
 O         3.867034         0.915768         0.275677
 C         2.679626         1.016261        -0.569069
 C         3.047167        -0.269418        -1.346629
 O         1.788681        -0.832938        -1.031134
 H         0.018689         1.150878         1.046444
 H        -0.073141         1.095434        -0.681389
 H        -0.510010        -0.323633         0.067267
 H         2.405082         0.249004         2.190792
 H         1.500999        -1.142648         1.807390
 H         4.239741        -0.972111         1.882625
 H         3.648640        -2.319271         0.962729
 H         5.174944        -0.586230        -0.464529
 H         2.313029         2.018583        -0.746881
 H         3.346066        -0.352115        -2.393703
