19
Iteration:  4810charge 0 multiplicity 1
 C         0.246071         0.565536         0.234666
 C         1.678459         0.037383         0.149536
 C         2.281496        -0.537572         1.370757
 C         3.696572        -1.203225         1.026532
 C         4.111335        -0.348097        -0.150827
 O         3.902346         1.024673         0.249288
 C         2.647368         0.951372        -0.594004
 C         3.030188        -0.281314        -1.357280
 O         1.689165        -0.851016        -1.091728
 H        -0.239396         0.970577         1.169694
 H         0.135290         1.265612        -0.581572
 H        -0.371824        -0.383359         0.128588
 H         2.450441         0.242417         2.153239
 H         1.539344        -1.191703         1.829274
 H         4.444137        -1.146146         1.892205
 H         3.637330        -2.330656         0.873838
 H         5.055052        -0.699563        -0.620876
 H         2.113557         1.895205        -0.817732
 H         3.486614        -0.380745        -2.374200
