19
Iteration:  3575
 C         0.207788         0.630625         0.246016
 C         1.616387        -0.003126         0.105474
 C         2.239405        -0.617793         1.373679
 C         3.639233        -1.228960         0.990428
 C         4.123156        -0.451606        -0.285108
 O         3.890078         1.011312         0.228446
 C         2.689870         0.994352        -0.418133
 C         3.004164        -0.168369        -1.344761
 O         1.813013        -0.866671        -1.089639
 H         0.307525         1.412550         1.057747
 H        -0.083414         0.939482        -0.782606
 H        -0.499561        -0.067827         0.581774
 H         2.154531         0.170876         2.089664
 H         1.602233        -1.497047         1.735891
 H         4.281388        -0.826158         1.797688
 H         3.784312        -2.316090         0.981130
 H         5.273634        -0.553276        -0.356757
 H         2.377413         1.977294        -0.661445
 H         3.324770        -0.192530        -2.352503
