19
Iteration:  3832charge 0 multiplicity 1
 C         0.242023         0.584053         0.155744
 C         1.623858         0.018207         0.184289
 C         2.217916        -0.642517         1.404988
 C         3.571967        -1.235422         0.960979
 C         4.115290        -0.406895        -0.184110
 O         3.987155         1.050573         0.156077
 C         2.708061         1.032129        -0.450476
 C         2.988860        -0.178080        -1.322392
 O         1.798304        -0.902235        -1.013970
 H        -0.037701         1.153228         1.061093
 H         0.048157         1.154871        -0.733239
 H        -0.457376        -0.310304         0.118446
 H         2.456089         0.152294         2.152105
 H         1.530271        -1.359040         1.766443
 H         4.153163        -1.122102         1.811791
 H         3.456857        -2.187073         0.538289
 H         5.089062        -0.524627        -0.528155
 H         2.333778         2.034631        -0.745011
 H         3.263031        -0.198118        -2.373868
