19
Iteration:  2699charge 0 multiplicity 1
 C         0.170325         0.508784         0.375301
 C         1.615137         0.108417         0.111399
 C         2.169561        -0.551118         1.279543
 C         3.582650        -1.191864         0.943763
 C         4.200684        -0.391558        -0.144172
 O         3.904451         1.039829         0.220558
 C         2.692859         1.022021        -0.574041
 C         3.086521        -0.223559        -1.361880
 O         1.833479        -0.945958        -1.013461
 H         0.298689         1.405275         1.119044
 H        -0.308150         1.055655        -0.541103
 H        -0.535684        -0.270993         0.705169
 H         2.214236         0.059928         2.115000
 H         1.397542        -1.327788         1.634903
 H         4.282672        -1.467863         1.772827
 H         3.438364        -2.161585         0.462318
 H         5.329338        -0.643782        -0.398292
 H         2.546999         2.007660        -0.995746
 H         3.332805        -0.304750        -2.418520
