19
Iteration:  3005
 C         0.111302         0.580056         0.184626
 C         1.612398         0.072539         0.171758
 C         2.305506        -0.564932         1.369868
 C         3.643924        -1.145533         1.001964
 C         4.105771        -0.420499        -0.265420
 O         3.951491         0.901836         0.293349
 C         2.685550         1.061479        -0.503097
 C         3.003288        -0.203380        -1.416695
 O         1.810639        -0.908517        -1.008890
 H        -0.179506         1.277837         1.090687
 H        -0.153934         1.091222        -0.726916
 H        -0.344305        -0.415004         0.047980
 H         2.318866         0.143725         2.160308
 H         1.585479        -1.429438         1.713717
 H         4.527952        -0.940694         1.709847
 H         3.491403        -2.243281         0.885414
 H         5.181095        -0.524599        -0.508643
 H         2.587075         2.096650        -0.621333
 H         3.194336        -0.283562        -2.487841
