19
Iteration:  3753charge 0 multiplicity 1
 C         0.247370         0.584547         0.267577
 C         1.602571         0.008850         0.105831
 C         2.228844        -0.652698         1.344651
 C         3.585049        -1.174215         0.934388
 C         4.113877        -0.461683        -0.213380
 O         3.924544         0.997241         0.284063
 C         2.664032         1.026889        -0.485837
 C         3.088895        -0.184040        -1.346293
 O         1.781652        -0.883020        -1.085408
 H         0.356600         1.501350         0.826994
 H        -0.073742         0.851989        -0.780778
 H        -0.630861         0.109592         0.732248
 H         2.413155         0.257015         2.059701
 H         1.581456        -1.281090         1.963467
 H         4.258721        -1.073492         1.795747
 H         3.537008        -2.245419         0.920172
 H         5.187817        -0.469953        -0.453631
 H         2.488417         2.061116        -0.755080
 H         3.228253        -0.091920        -2.445475
