19
Iteration:  4573charge 0 multiplicity 1
 C         0.146262         0.542393         0.221589
 C         1.627019         0.120011         0.124497
 C         2.206675        -0.559276         1.407051
 C         3.515742        -1.284356         0.855743
 C         4.316891        -0.428897        -0.143187
 O         3.913647         1.132322         0.143622
 C         2.757418         1.038441        -0.579376
 C         3.045572        -0.295172        -1.321105
 O         1.770231        -0.896273        -0.851814
 H        -0.176664         1.010038         1.142892
 H        -0.027583         1.268974        -0.532744
 H        -0.298506        -0.354322        -0.009615
 H         2.294706        -0.031238         2.402473
 H         1.537128        -1.345217         1.438653
 H         4.240504        -1.366935         1.737474
 H         3.317157        -2.278585         0.473900
 H         5.371639        -0.586244        -0.394570
 H         2.261497         1.895287        -1.023935
 H         3.169038        -0.353527        -2.352608
