19
Iteration:   316charge 0 multiplicity 1
 C         0.185255         0.488602         0.227203
 C         1.650528         0.059001         0.094799
 C         2.243485        -0.365816         1.344393
 C         3.498093        -1.187300         0.984584
 C         4.126585        -0.425576        -0.163560
 O         3.874438         0.992640         0.311045
 C         2.756784         1.004148        -0.610782
 C         3.032397        -0.242979        -1.384079
 O         1.850796        -0.970153        -1.019796
 H         0.354845         1.076970         1.203438
 H        -0.223476         1.075156        -0.590511
 H        -0.426820        -0.387131         0.449569
 H         2.555272         0.564181         1.868961
 H         1.710854        -1.016290         2.036843
 H         4.032000        -1.143844         1.946830
 H         3.400805        -2.353741         0.774918
 H         5.153219        -0.434470        -0.396858
 H         2.514770         1.920316        -1.184824
 H         3.420145        -0.399682        -2.351805
