19
Iteration:  4584
 C         0.123054         0.590797         0.176582
 C         1.603155         0.136283         0.153206
 C         2.292905        -0.642852         1.344397
 C         3.642161        -1.286226         0.972057
 C         4.188462        -0.412530        -0.150956
 O         3.926174         1.127796         0.131480
 C         2.677838         1.022242        -0.575866
 C         3.014877        -0.283805        -1.262044
 O         1.794437        -0.893848        -0.929126
 H        -0.112948         0.921789         1.180273
 H        -0.033221         1.365378        -0.542155
 H        -0.594407        -0.125681        -0.039999
 H         2.434884         0.126766         2.150823
 H         1.621500        -1.346519         1.745380
 H         4.200297        -1.608804         1.891243
 H         3.381928        -2.217801         0.461205
 H         5.219779        -0.678171        -0.385391
 H         2.532160         1.995539        -1.007169
 H         3.327268        -0.430848        -2.250577
