19
Iteration:  1356charge 0 multiplicity 1
 C         0.110035         0.514727         0.269164
 C         1.596455         0.122041         0.115980
 C         2.169617        -0.579654         1.315889
 C         3.557459        -1.160251         0.957535
 C         4.102290        -0.396340        -0.219696
 O         3.985244         1.049599         0.171542
 C         2.751880         0.999003        -0.604929
 C         3.124235        -0.272191        -1.273728
 O         1.832186        -0.886564        -0.907510
 H         0.014087         1.291428         0.988192
 H        -0.430478         0.735076        -0.709220
 H        -0.424311        -0.384766         0.651900
 H         2.324827        -0.011955         2.202314
 H         1.520010        -1.441857         1.414562
 H         4.296018        -1.156684         1.807700
 H         3.615916        -2.190525         0.703080
 H         5.167651        -0.537354        -0.394584
 H         2.581718         2.099797        -0.988219
 H         3.329765        -0.508327        -2.293338
