19
Iteration:  2019charge 0 multiplicity 1
 C         0.219558         0.558397         0.210127
 C         1.588180         0.043753         0.152224
 C         2.142748        -0.674477         1.390164
 C         3.532369        -1.167745         0.944727
 C         4.138696        -0.391393        -0.226343
 O         3.990970         1.118260         0.086113
 C         2.708558         1.122584        -0.487006
 C         3.022777        -0.195983        -1.301478
 O         1.896340        -0.977658        -0.912979
 H         0.066258         1.440989         0.895612
 H        -0.087133         0.828911        -0.853713
 H        -0.380318        -0.254336         0.712121
 H         2.333499        -0.113779         2.327644
 H         1.506572        -1.616568         1.662886
 H         4.172226        -1.526039         1.745018
 H         3.322006        -2.178428         0.494264
 H         5.222033        -0.605878        -0.489757
 H         2.088235         1.914000        -0.808627
 H         3.346645        -0.445880        -2.316357
