19
Iteration:   929
 C         0.154230         0.471468         0.229954
 C         1.628536         0.038300         0.099217
 C         2.283687        -0.458508         1.421376
 C         3.523579        -1.232448         0.942388
 C         4.132132        -0.405801        -0.200213
 O         3.898609         1.005071         0.233026
 C         2.694721         1.093299        -0.528203
 C         3.052884        -0.203514        -1.370419
 O         1.849377        -0.932291        -0.991612
 H         0.074459         1.397236         0.763998
 H        -0.300317         0.592475        -0.770713
 H        -0.292007        -0.276505         0.866117
 H         2.767650         0.393957         1.966418
 H         1.623814        -1.098019         2.028045
 H         4.250346        -1.572577         1.745005
 H         3.245261        -2.189795         0.564131
 H         5.133596        -0.720224        -0.537850
 H         2.438589         2.151671        -0.915511
 H         3.467390        -0.249954        -2.372018
