19
Iteration:  3011
 C         0.122866         0.558897         0.191493
 C         1.600330         0.049243         0.080741
 C         2.300708        -0.532409         1.348004
 C         3.660594        -1.173500         0.977853
 C         4.071390        -0.417226        -0.214391
 O         3.940355         0.910896         0.230720
 C         2.701110         1.023836        -0.445805
 C         3.032184        -0.211269        -1.323428
 O         1.792604        -0.853834        -1.011927
 H        -0.102377         1.011034         1.097748
 H         0.073891         1.097621        -0.801560
 H        -0.490196        -0.369124         0.421619
 H         2.311245         0.180536         2.234837
 H         1.733534        -1.311991         1.740563
 H         4.465077        -1.041892         1.648420
 H         3.518796        -2.246274         0.924357
 H         5.101563        -0.574469        -0.541208
 H         2.459702         2.093435        -0.883688
 H         3.344735        -0.098872        -2.387065
