19
Iteration:  2329
 C         0.206666         0.516393         0.376075
 C         1.618414         0.068791         0.056768
 C         2.217804        -0.486322         1.316914
 C         3.591334        -1.180416         0.995541
 C         4.120048        -0.416226        -0.214706
 O         3.918317         0.985476         0.186690
 C         2.691895         1.023950        -0.519369
 C         3.120009        -0.161691        -1.306276
 O         1.807814        -0.960830        -1.066823
 H         0.157017         0.981018         1.431652
 H        -0.346801         0.963839        -0.472775
 H        -0.402195        -0.363055         0.529661
 H         2.097046         0.248542         2.192916
 H         1.456634        -1.267100         1.410427
 H         4.300573        -1.252223         1.848214
 H         3.509115        -2.325161         0.702899
 H         5.126365        -0.494270        -0.607486
 H         2.350094         2.032627        -0.748472
 H         3.359131        -0.066917        -2.340915
