19
Iteration:   930
 C         0.156410         0.477087         0.227852
 C         1.628313         0.032738         0.109927
 C         2.282799        -0.458745         1.418631
 C         3.528763        -1.240724         0.949994
 C         4.141831        -0.399386        -0.198459
 O         3.898345         1.003880         0.232673
 C         2.691302         1.092622        -0.525294
 C         3.054790        -0.206704        -1.378043
 O         1.840678        -0.925328        -0.996650
 H         0.075685         1.374294         0.739840
 H        -0.307601         0.583329        -0.793558
 H        -0.306746        -0.276287         0.870475
 H         2.766306         0.405164         1.964194
 H         1.639273        -1.091037         2.029933
 H         4.232467        -1.567280         1.749399
 H         3.269433        -2.190862         0.593747
 H         5.116617        -0.710716        -0.548484
 H         2.426203         2.132782        -0.920252
 H         3.467350        -0.252339        -2.387306
