19
Iteration:  3526charge 0 multiplicity 1
 C         0.145083         0.476140         0.348703
 C         1.604191         0.148937         0.151310
 C         2.170576        -0.618776         1.288541
 C         3.506228        -1.254544         0.964821
 C         4.132691        -0.416522        -0.173179
 O         4.011237         1.135446         0.173986
 C         2.748732         1.036005        -0.637433
 C         3.097348        -0.219092        -1.341459
 O         1.868473        -0.882411        -0.941037
 H         0.149822         0.801692         1.354470
 H        -0.118585         1.085576        -0.500261
 H        -0.625179        -0.352157         0.356812
 H         2.120054        -0.013524         2.255086
 H         1.429434        -1.404131         1.451765
 H         4.038637        -1.567103         1.890933
 H         3.332040        -2.219191         0.386255
 H         5.082746        -0.685966        -0.548635
 H         2.246722         2.073343        -0.848648
 H         3.435783        -0.356380        -2.411615
