19
Iteration:  1054charge 0 multiplicity 1
 C         0.156656         0.452670         0.187945
 C         1.611284         0.074439         0.151509
 C         2.283432        -0.436818         1.411516
 C         3.591787        -1.167114         0.966879
 C         4.100462        -0.437355        -0.219048
 O         3.918066         1.006364         0.237599
 C         2.743753         1.035969        -0.561658
 C         3.025410        -0.243257        -1.318316
 O         1.788381        -0.903022        -0.998309
 H         0.028666         1.018396         1.084203
 H        -0.070606         1.015484        -0.702469
 H        -0.470768        -0.424335         0.025242
 H         2.631996         0.306333         2.150690
 H         1.642043        -1.196807         1.921307
 H         4.412668        -1.271657         1.662415
 H         3.372088        -2.208113         0.638058
 H         5.122751        -0.613073        -0.461585
 H         2.475337         1.992232        -0.876748
 H         3.411422        -0.386181        -2.364403
