19
Iteration:  3760charge 0 multiplicity 1
 C         0.266841         0.594842         0.241230
 C         1.606393         0.009151         0.087220
 C         2.274060        -0.610182         1.322452
 C         3.592079        -1.216633         1.022444
 C         4.171540        -0.458647        -0.194232
 O         3.891156         0.997428         0.274160
 C         2.677561         1.002867        -0.482630
 C         2.996035        -0.167456        -1.306250
 O         1.764581        -0.840913        -1.122087
 H         0.315719         1.528707         0.852049
 H        -0.229693         0.755482        -0.722482
 H        -0.338716        -0.116781         0.803551
 H         2.306140         0.328170         1.877153
 H         1.708677        -1.400105         1.935675
 H         4.344939        -1.044819         1.876346
 H         3.418990        -2.326976         0.712655
 H         5.229132        -0.775614        -0.569385
 H         2.326312         1.987515        -0.837569
 H         3.424325        -0.062703        -2.317781
