19
Iteration:   594charge 0 multiplicity 1
 C         0.234811         0.489210         0.129893
 C         1.602414        -0.044871         0.128032
 C         2.278783        -0.470952         1.465944
 C         3.574861        -1.129864         1.048485
 C         4.096754        -0.373518        -0.171553
 O         4.002605         1.012111         0.224234
 C         2.680462         0.993941        -0.575588
 C         3.021732        -0.242756        -1.277060
 O         1.735872        -0.903213        -1.098563
 H         0.217294         1.418258         0.642353
 H        -0.164947         0.614017        -0.960785
 H        -0.545836        -0.079665         0.701340
 H         2.705160         0.359632         2.108109
 H         1.681266        -1.093302         2.148453
 H         4.400407        -1.169657         1.836439
 H         3.320893        -2.155366         0.562582
 H         5.116509        -0.732375        -0.474279
 H         2.273394         1.988919        -0.834994
 H         3.316701        -0.323063        -2.390065
