19
Iteration:  1366charge 0 multiplicity 1
 C         0.130624         0.469173         0.304016
 C         1.617994         0.212181         0.055704
 C         2.181846        -0.530894         1.292906
 C         3.505601        -1.259861         0.941553
 C         4.216531        -0.381899        -0.146028
 O         3.968347         1.068798         0.157641
 C         2.720356         1.043005        -0.597329
 C         3.066637        -0.241996        -1.343722
 O         1.871105        -0.969643        -0.845257
 H        -0.099377         1.199575         1.016211
 H        -0.364713         0.828858        -0.675335
 H        -0.396179        -0.420411         0.651254
 H         2.192471         0.038541         2.231898
 H         1.419316        -1.274341         1.565651
 H         4.187157        -1.300812         1.787031
 H         3.174112        -2.185722         0.536775
 H         5.197156        -0.674223        -0.551210
 H         2.550391         2.060283        -1.022232
 H         3.456209        -0.344507        -2.292253
