19
Iteration:  1076charge 0 multiplicity 1
 C         0.125999         0.408393         0.181706
 C         1.635408         0.107010         0.145043
 C         2.154637        -0.459643         1.417708
 C         3.428968        -1.283638         0.951916
 C         4.112821        -0.371323        -0.244943
 O         4.099507         1.038505         0.085679
 C         2.682812         1.071046        -0.488958
 C         3.040487        -0.150196        -1.329619
 O         1.930816        -0.942700        -0.855569
 H         0.000459         1.141093         0.971165
 H        -0.302852         0.659915        -0.783556
 H        -0.322539        -0.598472         0.296651
 H         2.549456         0.373506         2.087676
 H         1.397931        -1.096849         1.962789
 H         4.111988        -1.465260         1.773215
 H         3.296876        -2.305954         0.492953
 H         5.095797        -0.700175        -0.506061
 H         2.461367         2.021376        -0.784193
 H         3.078091        -0.191043        -2.455369
