19
Iteration:  3190
 C         0.265923         0.471784         0.255010
 C         1.626550        -0.013328         0.071574
 C         2.288582        -0.539224         1.470197
 C         3.580249        -1.187683         0.975489
 C         4.102104        -0.479326        -0.170645
 O         3.920421         1.091260         0.252389
 C         2.663209         1.005145        -0.472970
 C         3.047881        -0.269167        -1.358722
 O         1.759202        -0.800492        -1.169127
 H         0.135021         1.205267         1.163217
 H         0.046095         1.204233        -0.499799
 H        -0.634461        -0.221334         0.306885
 H         2.548904         0.327743         2.057670
 H         1.515899        -1.145466         1.994036
 H         4.434405        -1.302202         1.669181
 H         3.265490        -2.201839         0.762475
 H         5.155611        -0.673073        -0.486906
 H         2.355810         1.923330        -0.843768
 H         3.423205        -0.399830        -2.370186
