19
Iteration:  2524
 C         0.182343         0.577446         0.131248
 C         1.600866         0.006244         0.189516
 C         2.297518        -0.684162         1.426470
 C         3.767129        -1.280856         1.055903
 C         4.106629        -0.345172        -0.186436
 O         3.923413         1.067524         0.191612
 C         2.721815         1.029804        -0.461656
 C         2.931530        -0.203361        -1.378148
 O         1.694961        -0.841686        -1.109457
 H         0.036254         1.352287         1.005459
 H        -0.071087         0.996367        -0.829206
 H        -0.525710        -0.241246         0.405534
 H         2.494441         0.090382         2.198936
 H         1.672104        -1.598889         1.735138
 H         4.389430        -0.990166         1.905812
 H         3.901972        -2.336932         0.809072
 H         5.241857        -0.495978        -0.287728
 H         2.327128         1.889813        -0.916456
 H         3.354645        -0.249708        -2.339192
