19
Iteration:  2174charge 0 multiplicity 1
 C         0.167628         0.490859         0.269883
 C         1.567607         0.062197         0.152625
 C         2.245406        -0.595840         1.381105
 C         3.579209        -1.206756         0.976082
 C         4.166143        -0.416953        -0.233999
 O         3.992374         1.022195         0.189624
 C         2.687383         1.014103        -0.529697
 C         2.969584        -0.181120        -1.389156
 O         1.860543        -0.899506        -1.017645
 H         0.166497         1.407081         1.101086
 H        -0.264976         0.924553        -0.600148
 H        -0.595095        -0.331348         0.670058
 H         2.181395         0.374482         2.033622
 H         1.500481        -1.337358         1.807599
 H         4.313647        -0.789825         1.676935
 H         3.525331        -2.334485         0.931837
 H         5.212579        -0.406167        -0.527637
 H         2.378034         2.003554        -0.706889
 H         3.359721        -0.250217        -2.336842
