19
Iteration:  3214charge 0 multiplicity 1
 C         0.164931         0.558835         0.200889
 C         1.602256         0.098924         0.121129
 C         2.185079        -0.636018         1.339642
 C         3.649710        -1.208654         0.973575
 C         4.127679        -0.374937        -0.191051
 O         3.986662         0.961616         0.179955
 C         2.686231         1.036926        -0.446320
 C         3.007179        -0.164871        -1.345411
 O         1.830285        -0.938078        -0.968971
 H        -0.147148         1.380716         0.921610
 H        -0.025413         1.128830        -0.712834
 H        -0.584299        -0.210724         0.355552
 H         2.378885         0.095655         2.128060
 H         1.354135        -1.293076         1.781672
 H         4.380951        -1.176183         1.831573
 H         3.550452        -2.299658         0.749555
 H         5.119010        -0.486954        -0.718014
 H         2.496061         2.032134        -0.769906
 H         3.348039        -0.049099        -2.441951
