19
Iteration:  1874
 C         0.251699         0.573221         0.267261
 C         1.621725         0.021684         0.051491
 C         2.201050        -0.530046         1.344457
 C         3.599432        -1.205510         0.958139
 C         4.141620        -0.403844        -0.223769
 O         3.890763         1.003385         0.227707
 C         2.681409         1.059159        -0.480998
 C         3.033872        -0.165535        -1.326216
 O         1.818983        -1.035347        -1.027868
 H         0.409339         1.478375         0.885637
 H        -0.225985         1.040410        -0.719554
 H        -0.532908        -0.027814         0.691753
 H         2.357520         0.320807         2.055521
 H         1.530082        -1.359718         1.817394
 H         4.264228        -1.122804         1.836021
 H         3.529061        -2.307230         0.857738
 H         5.210358        -0.299920        -0.324652
 H         2.429161         2.031282        -0.634434
 H         3.317602        -0.214600        -2.423351
