19
Iteration:  4248charge 0 multiplicity 1
 C         0.193378         0.475298         0.232455
 C         1.631767         0.083073         0.045624
 C         2.237197        -0.482898         1.341926
 C         3.622344        -1.177133         1.009597
 C         4.155267        -0.438009        -0.220031
 O         3.952816         0.981685         0.279190
 C         2.681040         1.012025        -0.535807
 C         3.068663        -0.246494        -1.299714
 O         1.751244        -0.865565        -1.023387
 H         0.141966         1.002769         1.227643
 H        -0.117837         1.178109        -0.581584
 H        -0.572648        -0.310717         0.236040
 H         2.344868         0.384133         2.025632
 H         1.543374        -1.243345         1.745168
 H         4.290160        -1.254301         1.866218
 H         3.342051        -2.253441         0.750149
 H         5.176568        -0.639994        -0.532155
 H         2.455495         2.050091        -0.980656
 H         3.073475        -0.256215        -2.408346
