19
Iteration:  3426charge 0 multiplicity 1
 C         0.171667         0.581447         0.368382
 C         1.648676         0.030182         0.090417
 C         2.112553        -0.678505         1.336043
 C         3.497148        -1.207155         0.948374
 C         4.157207        -0.360028        -0.068848
 O         4.016556         1.142943         0.116090
 C         2.716753         1.029136        -0.537880
 C         3.057088        -0.213747        -1.356592
 O         1.871832        -0.949451        -1.055235
 H         0.278882         1.379149         1.039484
 H        -0.401164         0.978898        -0.494000
 H        -0.282468        -0.303401         0.925216
 H         2.229059        -0.026372         2.263470
 H         1.358704        -1.365635         1.552819
 H         4.084785        -1.379541         1.849387
 H         3.544442        -2.201817         0.501054
 H         5.045918        -0.628207        -0.486132
 H         2.202539         2.011108        -0.843614
 H         3.414447        -0.504610        -2.317943
