19
Iteration:  2424charge 0 multiplicity 1
 C         0.157470         0.454593         0.294741
 C         1.618763         0.077218         0.124625
 C         2.256782        -0.560936         1.346861
 C         3.614327        -1.218915         0.991763
 C         4.149995        -0.365847        -0.144463
 O         3.945325         1.009107         0.180570
 C         2.726828         1.030357        -0.465364
 C         3.009118        -0.171115        -1.351698
 O         1.770157        -0.883855        -1.138359
 H         0.024702         1.257334         1.059038
 H        -0.179044         0.732103        -0.644848
 H        -0.513428        -0.374556         0.623781
 H         2.470321         0.187248         2.111129
 H         1.550728        -1.345605         1.790541
 H         4.313614        -1.144451         1.841948
 H         3.470620        -2.271915         0.887724
 H         5.167557        -0.695505        -0.508683
 H         2.466139         2.013013        -0.734304
 H         3.396693        -0.077820        -2.338092
