19
Iteration:  4446
 C         0.258582         0.658430         0.192061
 C         1.570111        -0.056957         0.121673
 C         2.223330        -0.661952         1.368932
 C         3.620134        -1.245621         1.029887
 C         4.170208        -0.352948        -0.130017
 O         3.986677         1.137137         0.155159
 C         2.668240         0.998431        -0.526794
 C         2.984691        -0.232620        -1.304533
 O         1.757272        -0.929321        -1.042383
 H         0.235472         1.311544         1.056465
 H        -0.114495         1.134989        -0.734349
 H        -0.456680        -0.143354         0.347410
 H         2.308893         0.173798         1.997611
 H         1.652505        -1.355907         2.018446
 H         4.231607        -1.278675         1.873544
 H         3.465496        -2.267755         0.641445
 H         5.160690        -0.587407        -0.427231
 H         2.283516         1.902530        -0.997738
 H         3.401678        -0.269037        -2.268185
