19
Iteration:  1748
 C         0.174271         0.619239         0.274743
 C         1.607490         0.118897         0.122789
 C         2.153532        -0.688994         1.320696
 C         3.585484        -1.172410         0.998245
 C         4.129135        -0.335404        -0.196733
 O         3.913962         1.130707         0.184560
 C         2.746049         0.983705        -0.636516
 C         3.087771        -0.306682        -1.306369
 O         1.840877        -0.964950        -0.915146
 H         0.090701         1.148665         1.248595
 H        -0.187851         1.300228        -0.500351
 H        -0.466463        -0.343026         0.244746
 H         2.196626        -0.084425         2.244823
 H         1.458408        -1.472625         1.476293
 H         4.452354        -1.209272         1.739436
 H         3.473786        -2.163222         0.413521
 H         5.229583        -0.640044        -0.408915
 H         2.644527         2.101026        -1.030791
 H         3.241946        -0.678640        -2.328700
