19
Iteration:   221charge 0 multiplicity 1
 C         0.242783         0.649530         0.212213
 C         1.567395        -0.041258         0.059727
 C         2.212905        -0.611291         1.437432
 C         3.667600        -1.166930         1.176296
 C         4.184338        -0.318338        -0.060628
 O         3.938832         1.110649         0.162040
 C         2.655458         0.913171        -0.573643
 C         3.040576        -0.320100        -1.353308
 O         1.716945        -0.927756        -1.171530
 H         0.378811         1.430244         0.855474
 H        -0.085373         1.123232        -0.824095
 H        -0.628100        -0.005044         0.563811
 H         2.412651         0.298298         2.047248
 H         1.600030        -1.294842         2.006496
 H         4.356496        -1.179741         2.006273
 H         3.641771        -2.162813         0.878681
 H         5.217050        -0.526114        -0.479577
 H         2.339092         1.856183        -0.987537
 H         3.433113        -0.499449        -2.368827
