19
Iteration:  3583charge 0 multiplicity 1
 C         0.255143         0.618991         0.212843
 C         1.573222         0.029739         0.155410
 C         2.164220        -0.639560         1.388940
 C         3.637634        -1.180762         0.927204
 C         4.120866        -0.434150        -0.259252
 O         3.894098         0.957844         0.220146
 C         2.676690         0.994974        -0.433388
 C         3.073676        -0.144256        -1.353299
 O         1.831243        -0.912139        -1.030712
 H         0.254580         1.504929         0.818491
 H        -0.132037         1.041759        -0.657306
 H        -0.461617        -0.076663         0.625880
 H         2.393467         0.084749         2.179198
 H         1.433520        -1.437330         1.721608
 H         4.371205        -0.731739         1.652744
 H         3.801046        -2.296323         0.839293
 H         5.144012        -0.602742        -0.599105
 H         2.206864         2.038874        -0.535961
 H         3.379674         0.021536        -2.410670
