19
Iteration:  4758
 C         0.203908         0.475702         0.276310
 C         1.575881         0.098468         0.183113
 C         2.148200        -0.662807         1.391965
 C         3.487621        -1.155210         0.962819
 C         4.186122        -0.318009        -0.108696
 O         4.037541         1.098897        -0.004066
 C         2.794059         1.064452        -0.539379
 C         3.020893        -0.289138        -1.325612
 O         1.811933        -0.905693        -0.961842
 H        -0.097466         0.787795         1.342381
 H        -0.157749         1.312845        -0.380433
 H        -0.307476        -0.463668        -0.011025
 H         2.147658        -0.054348         2.369959
 H         1.479558        -1.488564         1.569482
 H         4.124823        -1.287659         1.852900
 H         3.253147        -2.080076         0.537486
 H         5.199565        -0.782131        -0.349519
 H         2.482448         2.015056        -0.905357
 H         3.305895        -0.377943        -2.333710
