19
Iteration:  3814
 C         0.133151         0.474538         0.271695
 C         1.618769         0.188386         0.103108
 C         2.122988        -0.603793         1.333627
 C         3.500982        -1.270825         0.934973
 C         4.156047        -0.347762        -0.211386
 O         4.085108         1.050018         0.143023
 C         2.692994         1.087381        -0.467424
 C         3.051250        -0.231997        -1.322938
 O         1.855742        -0.943650        -0.932101
 H         0.133154         1.349012         0.983492
 H        -0.245903         0.947082        -0.667539
 H        -0.421629        -0.392414         0.597846
 H         2.019600         0.021062         2.189695
 H         1.425386        -1.485569         1.482498
 H         4.352555        -1.378044         1.690020
 H         3.296143        -2.314044         0.501362
 H         5.219961        -0.722068        -0.447514
 H         2.468975         2.144954        -0.703341
 H         3.405965        -0.193010        -2.371566
