19
Iteration:  2663charge 0 multiplicity 1
 C         0.229003         0.480283         0.249263
 C         1.606931        -0.002376         0.128058
 C         2.170546        -0.688182         1.373131
 C         3.608525        -1.233272         0.997007
 C         4.098233        -0.390240        -0.094460
 O         4.020133         1.140645         0.072068
 C         2.740119         1.119254        -0.548805
 C         3.030915        -0.247198        -1.291901
 O         1.752840        -0.834078        -1.002610
 H         0.148960         0.997887         1.224260
 H         0.077712         1.113720        -0.521919
 H        -0.635374        -0.274628         0.275966
 H         2.213919         0.092024         2.209297
 H         1.416522        -1.472614         1.603254
 H         4.252253        -1.380222         1.961004
 H         3.533853        -2.223451         0.440722
 H         5.163050        -0.650196        -0.406974
 H         2.356114         2.073093        -0.977214
 H         3.312327        -0.406191        -2.341258
