19
Iteration:  4203charge 0 multiplicity 1
 C         0.159181         0.591015         0.188921
 C         1.623788         0.012464         0.157320
 C         2.162384        -0.546253         1.412028
 C         3.571476        -1.200379         0.906018
 C         4.180117        -0.376740        -0.165440
 O         3.990941         1.060707         0.111026
 C         2.706515         0.957201        -0.500997
 C         3.079791        -0.180831        -1.295158
 O         1.781783        -0.934707        -0.908278
 H        -0.133741         0.962622         1.242422
 H         0.006646         1.283803        -0.668383
 H        -0.585033        -0.256540         0.079969
 H         2.218445         0.133222         2.333877
 H         1.614716        -1.450062         1.613475
 H         4.376268        -1.445068         1.670682
 H         3.285832        -2.145655         0.374834
 H         5.195834        -0.574037        -0.551547
 H         2.345442         1.932251        -1.047496
 H         3.531030        -0.305117        -2.390436
