19
Iteration:  1954
 C         0.175243         0.506617         0.329314
 C         1.638635         0.123271         0.067137
 C         2.143789        -0.599720         1.396247
 C         3.554638        -1.128054         0.996450
 C         4.143909        -0.449572        -0.205762
 O         3.960033         0.992647         0.177376
 C         2.700680         0.988217        -0.591425
 C         3.035888        -0.177927        -1.349572
 O         1.889684        -0.877608        -1.004765
 H        -0.062083         0.894090         1.354873
 H        -0.343345         1.170036        -0.428675
 H        -0.361565        -0.484677         0.375511
 H         2.171973         0.257144         2.093614
 H         1.518265        -1.482846         1.831928
 H         4.176648        -1.026945         1.880482
 H         3.512177        -2.221634         0.740602
 H         5.192884        -0.660212        -0.642374
 H         2.543738         2.071189        -0.981450
 H         3.362668        -0.282436        -2.370160
