19
Iteration:  3233
 C         0.174238         0.562564         0.124696
 C         1.592606         0.097196         0.205317
 C         2.173890        -0.712009         1.345839
 C         3.548258        -1.229142         0.878859
 C         4.144947        -0.389083        -0.229313
 O         4.029684         1.121185         0.170368
 C         2.754874         1.069677        -0.502259
 C         3.045636        -0.247094        -1.270320
 O         1.790018        -0.887227        -0.871518
 H         0.048535         1.489812         0.905510
 H        -0.255417         0.979317        -0.780694
 H        -0.498336        -0.318629         0.475882
 H         2.096269        -0.224933         2.299110
 H         1.748083        -1.731879         1.352616
 H         4.200548        -1.207608         1.768269
 H         3.539571        -2.248076         0.548477
 H         5.202868        -0.625777        -0.576875
 H         2.333500         2.001158        -0.772422
 H         3.275657        -0.447944        -2.302044
