19
Iteration:  2187charge 0 multiplicity 1
 C         0.174878         0.503671         0.354754
 C         1.626344         0.070225         0.092074
 C         2.129478        -0.617046         1.301584
 C         3.566830        -1.151010         0.956662
 C         4.166686        -0.356888        -0.217766
 O         3.989685         1.037503         0.134481
 C         2.672793         1.049561        -0.527069
 C         3.108201        -0.238612        -1.312899
 O         1.812483        -0.903293        -0.977951
 H         0.210920         1.351547         1.185401
 H        -0.349879         0.800680        -0.574364
 H        -0.395084        -0.361049         0.800500
 H         2.346443        -0.055949         2.263349
 H         1.488725        -1.452348         1.539969
 H         4.177947        -1.075183         1.859407
 H         3.617383        -2.208343         0.775809
 H         5.151759        -0.733115        -0.428364
 H         2.346492         2.042542        -0.967925
 H         3.246687        -0.344458        -2.403175
