19
Iteration:  2148charge 0 multiplicity 1
 C         0.246320         0.468152         0.128019
 C         1.611326         0.064711         0.147120
 C         2.376753        -0.557151         1.465825
 C         3.609895        -1.209029         0.925376
 C         4.133729        -0.378295        -0.190044
 O         3.983531         1.017187         0.185525
 C         2.569559         1.023469        -0.492528
 C         2.998490        -0.221659        -1.254192
 O         1.698957        -0.867685        -1.019090
 H         0.052094         1.173954         0.888356
 H         0.062552         0.958814        -0.887190
 H        -0.474540        -0.310566         0.137203
 H         2.568359         0.310930         2.054947
 H         1.751877        -1.316958         2.003213
 H         4.408632        -1.212280         1.721755
 H         3.355130        -2.273545         0.574652
 H         5.169585        -0.505991        -0.623255
 H         2.144763         2.035612        -0.686899
 H         3.500769        -0.307793        -2.269332
