19
Iteration:  4215
 C         0.204503         0.543645         0.166716
 C         1.574633         0.032181         0.177983
 C         2.258072        -0.608781         1.513068
 C         3.583794        -1.236744         0.996490
 C         4.139904        -0.386452        -0.218290
 O         3.959626         1.084813         0.136515
 C         2.660128         0.985929        -0.541517
 C         3.056438        -0.271949        -1.306630
 O         1.815618        -0.858699        -1.048601
 H         0.037266         1.107115         1.142734
 H         0.159902         1.410753        -0.538821
 H        -0.575089        -0.159541        -0.137638
 H         2.413423         0.296947         2.178140
 H         1.573803        -1.243639         2.100514
 H         4.318613        -1.416051         1.803666
 H         3.275377        -2.290417         0.632032
 H         5.178669        -0.654095        -0.419002
 H         2.170661         1.997954        -0.853755
 H         3.331700        -0.135648        -2.442071
