19
Iteration:  3696charge 0 multiplicity 1
 C         0.167716         0.570212         0.218040
 C         1.620214         0.066796         0.152137
 C         2.161948        -0.730590         1.443319
 C         3.614676        -1.258422         0.974586
 C         4.123325        -0.356266        -0.164408
 O         4.025258         1.105358         0.158882
 C         2.737526         1.045704        -0.531857
 C         3.031969        -0.290555        -1.308446
 O         1.759812        -0.797741        -1.063251
 H        -0.091662         0.981763         1.190657
 H        -0.193715         1.321905        -0.524274
 H        -0.235597        -0.377574         0.095731
 H         2.531544         0.064840         2.137769
 H         1.546772        -1.602351         1.832219
 H         4.304592        -1.367110         1.847228
 H         3.327919        -2.216319         0.508916
 H         5.179408        -0.548953        -0.569583
 H         2.336914         2.005526        -0.770213
 H         3.261669        -0.511570        -2.352144
