19
Iteration:  3436
 C         0.229222         0.528746         0.313481
 C         1.612958         0.091645         0.082956
 C         2.111553        -0.666003         1.335264
 C         3.497458        -1.194880         0.954145
 C         4.197781        -0.302285        -0.172024
 O         4.027556         1.059003         0.146272
 C         2.678536         1.043319        -0.532754
 C         3.020813        -0.212769        -1.308701
 O         1.879392        -0.966671        -0.983083
 H         0.388147         1.282603         1.028325
 H        -0.404328         0.881527        -0.508977
 H        -0.470656        -0.110089         0.843307
 H         2.090219        -0.075960         2.265497
 H         1.515646        -1.518806         1.462394
 H         4.050468        -1.329572         1.864318
 H         3.253236        -2.129871         0.511017
 H         5.149963        -0.604166        -0.469199
 H         2.450561         1.962705        -1.031697
 H         3.309469        -0.061431        -2.318279
