19
Iteration:   766
 C         0.135043         0.441842         0.225962
 C         1.602276         0.050419         0.106346
 C         2.268050        -0.425030         1.353643
 C         3.538659        -1.209147         0.966598
 C         4.074856        -0.465736        -0.283309
 O         4.009749         0.915257         0.293428
 C         2.657558         1.101297        -0.521451
 C         3.019663        -0.134097        -1.390556
 O         1.910415        -0.938794        -0.984994
 H         0.062036         1.465676         0.649133
 H        -0.520564         0.526620        -0.775962
 H        -0.408709        -0.212647         0.981448
 H         2.442836         0.578260         1.848188
 H         1.559900        -1.024752         1.920002
 H         4.285228        -1.130726         1.813597
 H         3.378200        -2.330407         1.059401
 H         5.093681        -0.634089        -0.517384
 H         2.604856         2.215903        -0.629547
 H         3.247671        -0.172920        -2.444162
