19
Iteration:  4281charge 0 multiplicity 1
 C         0.132787         0.509679         0.289624
 C         1.648145         0.095831         0.112765
 C         2.118017        -0.671772         1.324656
 C         3.514119        -1.288917         1.064706
 C         4.137471        -0.384584        -0.100637
 O         4.107113         1.133075         0.054693
 C         2.711417         1.122432        -0.572100
 C         3.056421        -0.221436        -1.282966
 O         1.826319        -0.930430        -0.977303
 H         0.030693         1.413262         0.962519
 H        -0.226627         0.921528        -0.695426
 H        -0.397058        -0.300278         0.749266
 H         2.139637        -0.077981         2.245609
 H         1.346792        -1.456746         1.498878
 H         4.219094        -1.404970         1.850383
 H         3.383201        -2.191629         0.398984
 H         5.119533        -0.712018        -0.409294
 H         2.404654         2.059659        -1.153425
 H         3.249208        -0.197071        -2.389329
