19
Iteration:  1991
 C         0.187211         0.511439         0.173988
 C         1.580809         0.038736         0.143736
 C         2.286367        -0.588208         1.398927
 C         3.617676        -1.241575         0.971461
 C         4.110719        -0.362606        -0.166557
 O         3.946523         1.078194         0.209367
 C         2.721045         1.022285        -0.530231
 C         3.024343        -0.258049        -1.273162
 O         1.760002        -0.857247        -1.038921
 H         0.100547         1.268674         0.965932
 H        -0.108518         0.932774        -0.737844
 H        -0.406676        -0.384931         0.438213
 H         2.747856         0.263624         1.922960
 H         1.711542        -1.090412         2.085084
 H         4.304564        -1.564013         1.768027
 H         3.406859        -2.149063         0.412543
 H         5.146025        -0.492195        -0.467780
 H         2.109453         1.803808        -1.080197
 H         3.359359        -0.357775        -2.321136
