19
Iteration:  2813charge 0 multiplicity 1
 C         0.231517         0.523787         0.360584
 C         1.565324        -0.028392         0.065443
 C         2.296545        -0.592701         1.325508
 C         3.589550        -1.208391         1.039718
 C         4.166005        -0.385231        -0.145560
 O         3.928576         1.095282         0.229902
 C         2.730913         0.958382        -0.511053
 C         3.022592        -0.256294        -1.270349
 O         1.717883        -0.823329        -1.206861
 H         0.143609         1.124958         1.283216
 H        -0.049539         1.327957        -0.570613
 H        -0.583583        -0.267772         0.110806
 H         2.466864         0.334511         1.954527
 H         1.621538        -1.157964         1.866728
 H         4.232084        -1.062483         1.845512
 H         3.587931        -2.283162         0.869156
 H         5.118941        -0.770825        -0.375593
 H         2.517370         1.885313        -1.088269
 H         3.384142        -0.388634        -2.311164
