19
Iteration:  2111
 C         0.120888         0.525030         0.238068
 C         1.607769         0.070931         0.167031
 C         2.225767        -0.570099         1.385101
 C         3.518591        -1.233922         0.882576
 C         4.123921        -0.328688        -0.205059
 O         4.005836         1.057324         0.128289
 C         2.610166         1.077392        -0.583569
 C         3.114640        -0.223636        -1.267015
 O         1.896902        -0.960207        -0.919291
 H         0.104586         0.944795         1.259415
 H        -0.318079         1.240813        -0.401021
 H        -0.387887        -0.409029         0.411434
 H         2.227745         0.011072         2.327595
 H         1.529775        -1.348413         1.547512
 H         4.253707        -1.314162         1.679029
 H         3.349083        -2.213923         0.546868
 H         5.107918        -0.707198        -0.413509
 H         2.519730         2.112477        -1.052129
 H         3.329687        -0.443819        -2.327497
