19
Iteration:  1414
 C         0.204139         0.543809         0.129067
 C         1.600471         0.022979         0.130394
 C         2.293645        -0.486358         1.411083
 C         3.655793        -1.215343         1.078639
 C         4.158264        -0.435445        -0.170645
 O         3.927966         1.019734         0.199352
 C         2.643375         0.947438        -0.522849
 C         2.974551        -0.223746        -1.303512
 O         1.768515        -0.890069        -1.091202
 H        -0.111092         1.136818         1.062707
 H         0.015641         1.191625        -0.666514
 H        -0.592740        -0.233940         0.176424
 H         2.577942         0.303065         2.047334
 H         1.680699        -1.090279         2.060858
 H         4.488142        -1.062757         1.837291
 H         3.433816        -2.224904         0.768750
 H         5.222338        -0.516500        -0.447463
 H         2.452060         2.073014        -0.858966
 H         3.338991        -0.269811        -2.411108
