19
Iteration:  1945charge 0 multiplicity 1
 C         0.178488         0.502968         0.316773
 C         1.592638         0.019266         0.131815
 C         2.123018        -0.633531         1.385847
 C         3.535723        -1.169791         0.981576
 C         4.138769        -0.385886        -0.186650
 O         4.016552         1.101429         0.088832
 C         2.753914         1.072040        -0.545030
 C         3.086457        -0.256885        -1.317617
 O         1.825852        -0.878116        -1.022884
 H         0.021770         0.941665         1.348407
 H        -0.179259         1.152946        -0.403551
 H        -0.451672        -0.438049         0.270755
 H         2.129028         0.080469         2.227562
 H         1.455952        -1.449736         1.634454
 H         4.243199        -1.068228         1.801046
 H         3.449992        -2.250601         0.910501
 H         5.039434        -0.959394        -0.457726
 H         2.515541         2.187543        -0.939615
 H         3.410127        -0.315407        -2.325838
