19
Iteration:   110charge 0 multiplicity 1
 C         0.242074         0.664785         0.220514
 C         1.604613         0.036115         0.042018
 C         2.210364        -0.513501         1.356305
 C         3.680401        -1.107673         1.091886
 C         4.118667        -0.427452        -0.170493
 O         3.867720         1.015804         0.231336
 C         2.690219         0.885169        -0.576954
 C         3.069166        -0.312403        -1.322874
 O         1.788870        -0.961651        -1.044521
 H         0.210796         1.154317         1.176047
 H         0.029278         1.399912        -0.576785
 H        -0.558931        -0.075995         0.220518
 H         2.128077         0.331641         2.079855
 H         1.465173        -1.269484         1.692267
 H         4.352520        -0.660558         1.767910
 H         3.693589        -2.191647         1.222636
 H         5.152958        -0.521912        -0.510501
 H         2.307274         1.837780        -1.073131
 H         3.342231        -0.353562        -2.346251
