19
Iteration:  3317charge 0 multiplicity 1
 C         0.185088         0.517335         0.252421
 C         1.628776         0.069308         0.095125
 C         2.212158        -0.648900         1.359198
 C         3.574217        -1.291955         0.957063
 C         4.072886        -0.398910        -0.133232
 O         4.002291         1.098778         0.178021
 C         2.729183         1.054585        -0.560489
 C         3.088644        -0.220917        -1.294874
 O         1.774022        -0.842773        -0.975637
 H        -0.056763         1.045504         1.121651
 H        -0.176645         0.986997        -0.665189
 H        -0.503730        -0.350287         0.324098
 H         2.352425         0.264701         2.068128
 H         1.532664        -1.328443         1.836382
 H         4.358177        -1.372067         1.718759
 H         3.409230        -2.266210         0.428202
 H         5.064300        -0.590082        -0.377410
 H         2.404430         2.014674        -1.142723
 H         3.322654        -0.236543        -2.321281
