19
Iteration:  1931charge 0 multiplicity 1
 C         0.161729         0.477145         0.260068
 C         1.613520         0.056558         0.137027
 C         2.165126        -0.715430         1.346715
 C         3.557352        -1.192681         1.054783
 C         4.105034        -0.373022        -0.110055
 O         4.139548         1.150708         0.029792
 C         2.754940         1.019067        -0.527903
 C         3.007781        -0.221806        -1.273804
 O         1.734166        -0.879615        -1.023011
 H         0.037940         1.057438         1.186534
 H         0.060663         1.294745        -0.621668
 H        -0.679249        -0.235749         0.271520
 H         2.188144        -0.032090         2.222977
 H         1.439636        -1.638211         1.612931
 H         4.182291        -1.183622         1.967718
 H         3.628024        -2.166877         0.489907
 H         5.214683        -0.287889        -0.347738
 H         2.192303         1.930832        -0.913608
 H         3.391327        -0.443844        -2.294746
