19
Iteration:  4751charge 0 multiplicity 1
 C         0.185223         0.494299         0.229692
 C         1.605287         0.037393         0.164120
 C         2.151629        -0.648417         1.463945
 C         3.509972        -1.229744         0.980914
 C         4.198279        -0.330431        -0.104082
 O         4.033190         1.129795         0.027598
 C         2.794389         1.060691        -0.627868
 C         3.050923        -0.237962        -1.297453
 O         1.758879        -0.881331        -0.941267
 H         0.133440         0.788585         1.246488
 H        -0.230579         1.243970        -0.453058
 H        -0.418688        -0.379301         0.077766
 H         2.130465        -0.028097         2.346585
 H         1.467911        -1.546820         1.619918
 H         4.218952        -1.315756         1.801647
 H         3.328908        -2.274215         0.465172
 H         5.119243        -0.673983        -0.550155
 H         2.364074         2.102605        -0.932938
 H         3.286313        -0.406978        -2.386065
