19
Iteration:   830
 C         0.203244         0.661425         0.282651
 C         1.629586         0.073979         0.171977
 C         2.103489        -0.763258         1.326320
 C         3.601701        -1.173361         1.038586
 C         4.118300        -0.354728        -0.206567
 O         4.001667         1.127422         0.093512
 C         2.676605         1.067525        -0.561709
 C         3.079851        -0.267073        -1.299421
 O         1.833782        -1.006521        -0.964778
 H         0.003469         1.030206         1.291716
 H         0.116587         1.461735        -0.512291
 H        -0.519083        -0.116062         0.044420
 H         1.957082        -0.221076         2.299042
 H         1.522532        -1.718456         1.455316
 H         4.383149        -0.791218         1.805061
 H         3.582166        -2.234530         0.800138
 H         5.089970        -0.735176        -0.543521
 H         2.202123         1.975212        -1.065721
 H         3.361597        -0.291642        -2.327531
