19
Iteration:  1052
 C         0.163326         0.464840         0.197082
 C         1.614577         0.077908         0.148788
 C         2.281494        -0.443577         1.418547
 C         3.608101        -1.169720         0.961084
 C         4.102693        -0.423965        -0.214611
 O         3.913128         1.011030         0.241220
 C         2.724250         1.001041        -0.555104
 C         3.050685        -0.258903        -1.306547
 O         1.764585        -0.888036        -1.021568
 H         0.002113         1.002135         1.071581
 H        -0.026098         1.107677        -0.749130
 H        -0.472821        -0.472270         0.041319
 H         2.632605         0.394004         2.132736
 H         1.640139        -1.201836         1.876241
 H         4.436629        -1.324113         1.766800
 H         3.503922        -2.204526         0.672253
 H         5.107507        -0.604946        -0.489143
 H         2.456039         2.010152        -0.934296
 H         3.346261        -0.417611        -2.362335
