19
Iteration:   799charge 0 multiplicity 1
 C         0.197975         0.493615         0.282203
 C         1.657909         0.033961         0.139659
 C         2.224182        -0.583447         1.361115
 C         3.548872        -1.288343         0.964561
 C         4.201401        -0.297524        -0.071224
 O         3.966093         1.091689         0.131733
 C         2.637201         1.007266        -0.617129
 C         3.109388        -0.302457        -1.291886
 O         1.745752        -0.820726        -1.017078
 H         0.159795         1.340724         0.991420
 H        -0.164051         0.905534        -0.808961
 H        -0.527744        -0.356733         0.590408
 H         2.337374         0.292085         2.119345
 H         1.627053        -1.326714         1.881564
 H         4.181737        -1.586688         1.896740
 H         3.052474        -2.151420         0.324859
 H         5.234758        -0.547214        -0.278314
 H         2.393407         2.023812        -1.104024
 H         3.410744        -0.454347        -2.327176
