19
Iteration:  1528
 C         0.150835         0.526334         0.151878
 C         1.595527         0.080542         0.086685
 C         2.253239        -0.553728         1.385304
 C         3.577516        -1.247263         0.954541
 C         4.129836        -0.388526        -0.187511
 O         3.936659         1.063308         0.202783
 C         2.746220         1.045301        -0.556290
 C         3.016477        -0.246632        -1.280770
 O         1.851044        -0.927033        -0.917999
 H         0.146190         1.336174         0.852627
 H        -0.215804         0.682256        -0.933369
 H        -0.505037        -0.197620         0.609815
 H         2.397570         0.309893         2.110533
 H         1.481259        -1.125601         1.928962
 H         4.321200        -1.322675         1.689935
 H         3.099425        -2.228334         0.590338
 H         5.195516        -0.621600        -0.483239
 H         2.526669         1.964165        -0.943248
 H         3.332786        -0.342331        -2.293378
