19
Iteration:  4200
 C         0.153437         0.599658         0.203970
 C         1.644515         0.036440         0.153742
 C         2.155469        -0.556781         1.370701
 C         3.561685        -1.189092         0.882256
 C         4.169443        -0.362959        -0.155823
 O         4.001795         1.057160         0.109418
 C         2.712689         0.988643        -0.480492
 C         3.086422        -0.190659        -1.295210
 O         1.782381        -0.969004        -0.889848
 H        -0.141147         0.979790         1.203541
 H        -0.127929         1.222365        -0.661763
 H        -0.568717        -0.289739         0.077825
 H         2.215123         0.075800         2.281271
 H         1.602842        -1.461299         1.535241
 H         4.280583        -1.459488         1.719862
 H         3.366492        -2.102205         0.411052
 H         5.200019        -0.553120        -0.531037
 H         2.469090         1.890841        -1.018966
 H         3.372441        -0.386307        -2.346070
