19
Iteration:  3429
 C         0.189186         0.562957         0.336843
 C         1.658741         0.056198         0.072222
 C         2.114507        -0.673347         1.340228
 C         3.485152        -1.183070         0.939754
 C         4.181451        -0.331605        -0.083198
 O         4.027907         1.110541         0.125998
 C         2.698372         1.032243        -0.527138
 C         3.023445        -0.214482        -1.339313
 O         1.883075        -0.961659        -1.031402
 H         0.346255         1.348141         1.150520
 H        -0.459579         0.927637        -0.492464
 H        -0.392652        -0.230743         0.979714
 H         2.198874        -0.079551         2.325669
 H         1.329230        -1.469890         1.540440
 H         4.020274        -1.404791         1.917949
 H         3.444611        -2.252755         0.501262
 H         5.122100        -0.675619        -0.623546
 H         2.216881         2.053935        -0.969463
 H         3.412507        -0.353772        -2.393343
