19
Iteration:  4568
 C         0.193772         0.518238         0.235594
 C         1.639245         0.135757         0.164670
 C         2.155932        -0.524903         1.396146
 C         3.487333        -1.260034         0.856166
 C         4.252321        -0.395045        -0.163250
 O         3.967688         1.105438         0.164954
 C         2.757293         0.999256        -0.589684
 C         3.076276        -0.267634        -1.335866
 O         1.776160        -0.912021        -0.852010
 H        -0.168573         1.030336         1.155482
 H        -0.150423         1.250903        -0.570535
 H        -0.307061        -0.532718         0.035370
 H         2.289621        -0.093112         2.388236
 H         1.415638        -1.440269         1.501731
 H         4.233916        -1.287197         1.626584
 H         3.291676        -2.249610         0.389621
 H         5.394121        -0.415111        -0.410090
 H         2.238427         1.871218        -1.053863
 H         3.136041        -0.463293        -2.498991
