19
Iteration:  4763charge 0 multiplicity 1
 C         0.162196         0.474588         0.325680
 C         1.638097         0.141938         0.185195
 C         2.121804        -0.641088         1.332101
 C         3.506518        -1.090964         0.974946
 C         4.140427        -0.360520        -0.154879
 O         4.080403         1.083213         0.011144
 C         2.734599         1.024198        -0.498100
 C         3.002757        -0.294229        -1.313100
 O         1.847881        -0.918815        -0.976309
 H        -0.264142         0.706086         1.260627
 H        -0.012222         1.294129        -0.367040
 H        -0.359932        -0.418413        -0.012887
 H         2.198141        -0.053018         2.214357
 H         1.436840        -1.511469         1.593466
 H         4.090719        -1.345933         1.863202
 H         3.351453        -2.163815         0.488960
 H         5.206794        -0.597162        -0.142365
 H         2.468785         2.056960        -0.961281
 H         3.377180        -0.410992        -2.391602
