19
Iteration:  2220charge 0 multiplicity 1
 C         0.238031         0.579226         0.319687
 C         1.629132         0.019234         0.160433
 C         2.208482        -0.750693         1.357958
 C         3.604836        -1.290567         1.020548
 C         4.189194        -0.307375        -0.097942
 O         3.912826         1.151908         0.091288
 C         2.640711         1.041239        -0.608985
 C         3.121018        -0.305779        -1.316707
 O         1.734205        -0.840460        -1.052203
 H         0.254202         1.461871         1.118739
 H        -0.194425         0.945580        -0.669765
 H        -0.522534        -0.151383         0.727836
 H         2.399284        -0.020967         2.246765
 H         1.372185        -1.380793         1.564747
 H         4.134124        -1.172899         1.957693
 H         3.809841        -2.189766         0.525093
 H         5.216231        -0.513525        -0.355717
 H         2.361517         2.040119        -1.055962
 H         3.254825        -0.594915        -2.380632
