19
Iteration:  2959charge 0 multiplicity 1
 C         0.140716         0.572926         0.285546
 C         1.629087         0.044458         0.192159
 C         2.137887        -0.686941         1.407228
 C         3.567473        -1.240536         0.964542
 C         4.209467        -0.323192        -0.053859
 O         4.026160         1.150014         0.054214
 C         2.721541         1.026244        -0.521877
 C         3.003874        -0.267033        -1.334395
 O         1.793982        -0.913666        -1.079302
 H         0.284738         1.375511         1.135104
 H        -0.076564         1.231208        -0.644078
 H        -0.568113        -0.338690         0.208283
 H         2.353931        -0.096995         2.322616
 H         1.436069        -1.506796         1.772485
 H         4.093652        -1.654222         1.882777
 H         3.449249        -2.136935         0.327618
 H         5.224517        -0.528383        -0.419180
 H         2.307888         1.997850        -0.824124
 H         3.469739        -0.403038        -2.307564
