19
Iteration:  1378charge 0 multiplicity 1
 C         0.171114         0.476039         0.256126
 C         1.632755         0.110968         0.149910
 C         2.199235        -0.461711         1.391891
 C         3.489166        -1.272297         0.919330
 C         4.141030        -0.368086        -0.136719
 O         3.974970         1.068206         0.147169
 C         2.733223         1.091938        -0.599141
 C         3.046510        -0.269698        -1.299648
 O         1.884173        -0.967056        -0.967664
 H         0.140637         1.139606         1.085421
 H        -0.333136         0.875843        -0.660822
 H        -0.280846        -0.515414         0.486237
 H         2.438461         0.349343         2.051572
 H         1.457169        -1.186620         1.732756
 H         4.005653        -1.684783         1.818701
 H         3.279882        -2.174141         0.424186
 H         5.226942        -0.498212        -0.189155
 H         2.255836         1.997563        -1.126648
 H         3.129850        -0.377159        -2.346346
