19
Iteration:  1512
 C         0.173652         0.575816         0.226196
 C         1.630678         0.113549         0.073624
 C         2.254273        -0.469757         1.356598
 C         3.618840        -1.263743         0.979245
 C         4.103132        -0.392713        -0.176660
 O         3.861418         0.958283         0.295912
 C         2.681637         1.053142        -0.588336
 C         3.090946        -0.235041        -1.384954
 O         1.846316        -0.993271        -0.982198
 H         0.076884         1.598516         0.713736
 H        -0.216004         0.956477        -0.656538
 H        -0.489099        -0.186778         0.708009
 H         2.384606         0.318298         2.087200
 H         1.724861        -1.318034         1.772932
 H         4.154737        -0.989007         1.988800
 H         3.731292        -2.267647         0.753983
 H         5.121625        -0.541361        -0.478021
 H         2.347907         2.178110        -0.932966
 H         3.217227        -0.544561        -2.475614
