19
Iteration:  1533
 C         0.172722         0.501773         0.153807
 C         1.611818         0.098795         0.103080
 C         2.235443        -0.561698         1.418834
 C         3.535995        -1.244654         0.909076
 C         4.131863        -0.366892        -0.165586
 O         3.974739         1.082495         0.151469
 C         2.724360         0.984755        -0.515458
 C         3.065713        -0.232751        -1.244071
 O         1.820106        -0.913666        -0.937831
 H        -0.042019         1.473047         0.739681
 H        -0.087096         0.731703        -0.853612
 H        -0.492105        -0.340783         0.551642
 H         2.312238         0.375103         2.049575
 H         1.605252        -1.273296         2.031487
 H         4.289746        -1.353645         1.789186
 H         3.149798        -2.157029         0.509437
 H         5.123698        -0.692335        -0.422395
 H         2.439310         1.999346        -1.050430
 H         3.269114        -0.387182        -2.347526
