19
Iteration:  2422charge 0 multiplicity 1
 C         0.159166         0.454816         0.285040
 C         1.628214         0.077088         0.127615
 C         2.255586        -0.565607         1.348952
 C         3.607389        -1.222349         0.999693
 C         4.144324        -0.369359        -0.169911
 O         3.950405         1.007721         0.178306
 C         2.711935         1.032330        -0.464907
 C         3.007181        -0.178268        -1.335298
 O         1.787935        -0.877348        -1.121591
 H         0.071566         1.245307         1.034789
 H        -0.270350         0.787493        -0.683681
 H        -0.519713        -0.392086         0.661026
 H         2.412853         0.126899         2.121904
 H         1.562217        -1.305448         1.737618
 H         4.299399        -1.127759         1.826409
 H         3.498215        -2.232382         0.833594
 H         5.152595        -0.730702        -0.481144
 H         2.430507         2.053458        -0.764274
 H         3.399993        -0.027165        -2.365296
