19
Iteration:  4361charge 0 multiplicity 1
 C         0.204714         0.551596         0.224078
 C         1.641842         0.036298         0.180878
 C         2.204451        -0.610980         1.442599
 C         3.477280        -1.221813         0.966688
 C         4.133696        -0.351666        -0.114796
 O         3.981942         1.111626         0.162152
 C         2.804350         1.020503        -0.622139
 C         3.024480        -0.260611        -1.320627
 O         1.785734        -0.912267        -1.039429
 H         0.082768         1.187855         1.065076
 H        -0.115202         1.075497        -0.685588
 H        -0.539608        -0.262768         0.424980
 H         2.363024         0.123959         2.250927
 H         1.542284        -1.475848         1.784828
 H         4.252761        -1.452485         1.755977
 H         3.311707        -2.262974         0.534922
 H         5.154109        -0.574329        -0.512877
 H         2.371273         1.944274        -0.975798
 H         3.422368        -0.222209        -2.358128
