19
Iteration:  4814
 C         0.271470         0.574706         0.235279
 C         1.665821         0.049114         0.113765
 C         2.266316        -0.528446         1.380710
 C         3.690831        -1.241467         1.015500
 C         4.111755        -0.360208        -0.178408
 O         3.918580         1.070303         0.240682
 C         2.601034         0.930644        -0.562285
 C         3.033156        -0.285221        -1.327529
 O         1.691307        -0.862541        -1.085371
 H        -0.192370         0.983891         1.156775
 H         0.065949         1.199023        -0.691399
 H        -0.268059        -0.357861         0.180462
 H         2.558916         0.159774         2.201026
 H         1.621398        -1.280450         1.821574
 H         4.321097        -1.207974         1.870784
 H         3.572065        -2.261189         0.936221
 H         5.103150        -0.598470        -0.587279
 H         2.261290         1.872008        -0.916902
 H         3.524383        -0.272751        -2.255135
