19
Iteration:  3085charge 0 multiplicity 1
 C         0.160227         0.629360         0.223783
 C         1.621855         0.053925         0.127553
 C         2.269648        -0.619014         1.336442
 C         3.653563        -1.188591         0.941340
 C         4.107966        -0.358998        -0.139511
 O         3.915402         1.002997         0.252096
 C         2.725961         0.987229        -0.513457
 C         3.006702        -0.221112        -1.372889
 O         1.776041        -0.957892        -1.028044
 H         0.280175         1.366772         1.050160
 H        -0.264170         1.012301        -0.791677
 H        -0.674959        -0.060767         0.639435
 H         2.508065         0.107738         2.189014
 H         1.438359        -1.318289         1.668637
 H         4.413547        -1.112987         1.755679
 H         3.682192        -2.293832         0.636438
 H         5.181062        -0.516678        -0.421190
 H         2.488149         2.111874        -0.753253
 H         3.346469        -0.190279        -2.469211
