19
Iteration:  3056
 C         0.184336         0.487486         0.330308
 C         1.640292         0.094378         0.125061
 C         2.150288        -0.636194         1.369407
 C         3.487429        -1.222628         0.913973
 C         4.145815        -0.381605        -0.097141
 O         3.968354         1.089140         0.106849
 C         2.678815         1.037492        -0.639281
 C         3.115015        -0.226749        -1.264974
 O         1.859246        -0.869696        -0.993369
 H         0.398451         1.176859         1.129823
 H        -0.214979         1.059666        -0.545716
 H        -0.313097        -0.313665         0.935216
 H         2.199345        -0.090635         2.345023
 H         1.358091        -1.325320         1.529394
 H         4.131643        -1.618520         1.663845
 H         3.263837        -2.091903         0.296895
 H         5.171131        -0.616459        -0.353057
 H         2.486676         2.055770        -1.061674
 H         3.471626        -0.340806        -2.278388
