19
Iteration:   964
 C         0.192955         0.609750         0.177979
 C         1.577027         0.027981         0.152421
 C         2.246089        -0.733482         1.372219
 C         3.712452        -1.146085         1.069433
 C         4.131096        -0.398496        -0.158441
 O         3.984210         1.075654         0.127820
 C         2.706842         1.028965        -0.511942
 C         3.047394        -0.238331        -1.260490
 O         1.696893        -0.880224        -1.075576
 H         0.191101         1.469357         0.703439
 H        -0.434719         0.651449        -0.767187
 H        -0.525131        -0.061274         0.712309
 H         2.006930        -0.037603         2.273343
 H         1.717146        -1.610220         1.735304
 H         4.320443        -0.919886         1.976248
 H         3.717313        -2.108052         0.667438
 H         5.044333        -0.685364        -0.632575
 H         2.352658         2.001563        -0.963236
 H         3.363455        -0.401404        -2.308891
