19
Iteration:  3995
 C         0.158449         0.608564         0.261586
 C         1.580053        -0.021049         0.192433
 C         2.123658        -0.736556         1.384295
 C         3.507925        -1.230350         0.948967
 C         4.187855        -0.257757        -0.138706
 O         4.062292         1.130355         0.100429
 C         2.783023         1.010229        -0.581912
 C         3.097086        -0.256430        -1.266074
 O         1.733567        -0.910659        -1.022277
 H         0.135366         1.252088         1.123480
 H        -0.053214         1.093808        -0.652673
 H        -0.646204        -0.098185         0.528331
 H         2.320650        -0.057802         2.269019
 H         1.515095        -1.574453         1.611472
 H         4.191654        -1.330720         1.842480
 H         3.375090        -2.072867         0.310286
 H         5.212027        -0.483989        -0.349087
 H         2.397483         1.988031        -0.956909
 H         3.578901        -0.401563        -2.257799
