19
Iteration:  4088
 C         0.203025         0.525523         0.158169
 C         1.663311         0.097853         0.177334
 C         2.199383        -0.672378         1.402737
 C         3.516390        -1.280896         0.889762
 C         4.136938        -0.350926        -0.157658
 O         4.006146         1.154796         0.177235
 C         2.776676         1.067128        -0.572374
 C         3.018538        -0.226268        -1.320580
 O         1.780210        -0.931221        -0.880202
 H         0.007367         1.210882         1.032607
 H        -0.118623         0.988765        -0.842005
 H        -0.434613        -0.359755         0.422392
 H         2.333140         0.142260         2.060126
 H         1.486916        -1.473852         1.802553
 H         4.132682        -1.540375         1.718365
 H         3.154389        -2.196870         0.360276
 H         5.148656        -0.556979        -0.589980
 H         2.310936         1.935153        -0.966361
 H         3.248723        -0.413441        -2.344091
