19
Iteration:   312charge 0 multiplicity 1
 C         0.176105         0.480627         0.218972
 C         1.658229         0.045439         0.073799
 C         2.271814        -0.351073         1.372915
 C         3.527490        -1.192102         1.009736
 C         4.116435        -0.423074        -0.139754
 O         3.872659         1.006699         0.296110
 C         2.762544         0.982467        -0.557184
 C         3.027360        -0.251273        -1.403975
 O         1.799521        -0.964892        -1.067143
 H         0.351216         1.090288         1.175545
 H        -0.037873         1.062339        -0.656157
 H        -0.405152        -0.393450         0.424087
 H         2.564867         0.540497         1.885452
 H         1.657603        -0.938379         2.130604
 H         4.124399        -1.139520         1.966058
 H         3.362382        -2.248252         0.804123
 H         5.240420        -0.526422        -0.371228
 H         2.445715         1.911932        -1.108176
 H         3.471917        -0.298674        -2.481672
