19
Iteration:  4600charge 0 multiplicity 1
 C         0.210904         0.633177         0.234915
 C         1.606412        -0.020646         0.112386
 C         2.253326        -0.578195         1.439764
 C         3.615140        -1.233320         0.950096
 C         4.054925        -0.312039        -0.141004
 O         3.988584         1.030226         0.179811
 C         2.698579         1.019036        -0.531942
 C         3.033815        -0.274712        -1.286896
 O         1.761787        -0.925319        -1.067961
 H        -0.051834         1.006780         1.253261
 H         0.153941         1.397785        -0.625030
 H        -0.500743        -0.267838        -0.044921
 H         2.483448         0.285981         2.038613
 H         1.508720        -1.263520         2.005362
 H         4.377881        -1.006569         1.687028
 H         3.676528        -2.362220         0.754020
 H         5.039660        -0.620259        -0.580055
 H         2.132501         1.909846        -0.923874
 H         3.511119        -0.333558        -2.353404
