19
Iteration:  2205charge 0 multiplicity 1
 C         0.199857         0.523366         0.371207
 C         1.619589         0.120542         0.113167
 C         2.183833        -0.723173         1.324760
 C         3.620197        -1.219616         0.997302
 C         4.126129        -0.322114        -0.080375
 O         3.988689         1.176715         0.113230
 C         2.773991         1.015967        -0.653011
 C         2.980644        -0.290760        -1.299429
 O         1.765175        -0.891942        -1.039346
 H         0.178559         1.421913         1.010593
 H        -0.243526         0.916726        -0.504027
 H        -0.362099        -0.349255         0.807628
 H         1.991969        -0.174028         2.274081
 H         1.599272        -1.707346         1.491744
 H         4.353266        -1.409437         1.814375
 H         3.316068        -2.280064         0.600199
 H         5.188522        -0.428428        -0.385907
 H         2.337437         1.854833        -1.094976
 H         3.545267        -0.415334        -2.155977
