19
Iteration:  4514charge 0 multiplicity 1
 C         0.198028         0.576157         0.243292
 C         1.635516         0.027707         0.093240
 C         2.245548        -0.588853         1.389107
 C         3.624684        -1.086453         1.034372
 C         4.173112        -0.390691        -0.147994
 O         3.941478         0.943452         0.236360
 C         2.725367         0.944369        -0.521349
 C         3.023930        -0.286022        -1.279953
 O         1.708843        -0.802948        -1.171954
 H         0.000643         1.469082         0.804081
 H        -0.270054         0.583750        -0.734342
 H        -0.497649        -0.190747         0.719527
 H         2.434595         0.217430         2.107798
 H         1.709263        -1.336346         2.079566
 H         4.340318        -0.967278         1.832517
 H         3.668789        -2.135274         0.694895
 H         5.196823        -0.604966        -0.668120
 H         2.311857         1.907762        -0.861579
 H         3.200612        -0.320110        -2.408223
