19
Iteration:  3463
 C         0.161673         0.550597         0.122157
 C         1.633993         0.117328         0.148226
 C         2.299475        -0.668913         1.416608
 C         3.653391        -1.261220         0.979057
 C         4.121456        -0.365223        -0.208109
 O         3.946840         1.039560         0.242877
 C         2.676109         1.025768        -0.495374
 C         2.970970        -0.264026        -1.330904
 O         1.781256        -0.841812        -1.026630
 H        -0.007715         1.446988         0.879769
 H        -0.244987         1.047475        -0.795093
 H        -0.578441        -0.265195         0.390789
 H         2.644811         0.073258         2.182060
 H         1.647501        -1.513260         1.870233
 H         4.229388        -1.037690         1.927351
 H         3.599988        -2.375580         0.678340
 H         5.189849        -0.658279        -0.679980
 H         2.282843         2.126517        -0.779247
 H         3.397651        -0.391923        -2.384682
