19
Iteration:  4943
 C         0.226483         0.548529         0.285968
 C         1.667384         0.070443         0.168451
 C         2.063968        -0.677515         1.414718
 C         3.540758        -1.243519         0.936857
 C         4.105525        -0.338550        -0.180667
 O         3.982119         1.176586         0.076507
 C         2.730853         1.046127        -0.525352
 C         3.050594        -0.232671        -1.348061
 O         1.870921        -0.951651        -0.945283
 H         0.145174         1.280280         1.137674
 H        -0.121649         1.124039        -0.667780
 H        -0.351943        -0.399313         0.387458
 H         2.118452        -0.076832         2.389901
 H         1.542186        -1.592563         1.593546
 H         4.393474        -1.387482         1.715215
 H         3.201929        -2.183999         0.392564
 H         5.145925        -0.678602        -0.319779
 H         2.363340         1.882326        -1.067308
 H         3.307733        -0.406247        -2.355303
