19
Iteration:   299charge 0 multiplicity 1
 C         0.241247         0.495206         0.190424
 C         1.613692         0.004619         0.069211
 C         2.301688        -0.430511         1.462868
 C         3.580458        -1.183980         1.115058
 C         4.120123        -0.407555        -0.113049
 O         3.948974         1.031559         0.178267
 C         2.654143         0.965185        -0.533205
 C         3.073715        -0.276266        -1.313653
 O         1.739851        -0.889517        -1.156307
 H        -0.051666         1.148181         0.927900
 H        -0.200162         1.000694        -0.776016
 H        -0.521654        -0.347188         0.233298
 H         2.564370         0.547001         1.896556
 H         1.538000        -0.955017         2.049740
 H         4.425995        -1.304879         1.795546
 H         3.326252        -2.124465         0.801276
 H         5.191625        -0.697239        -0.373933
 H         2.333183         1.984155        -0.699456
 H         3.368044        -0.300635        -2.412656
