19
Iteration:  2353
 C         0.220264         0.569529         0.271676
 C         1.594362        -0.032262         0.151735
 C         2.243661        -0.701824         1.371897
 C         3.644360        -1.188439         0.983487
 C         4.107828        -0.375434        -0.201648
 O         3.895984         1.064662         0.238972
 C         2.727462         1.032195        -0.535368
 C         3.057792        -0.242566        -1.355940
 O         1.756375        -0.861084        -1.079114
 H         0.311992         1.197944         1.184687
 H         0.050206         1.132592        -0.767785
 H        -0.708003         0.018039         0.425266
 H         2.455359         0.183590         2.020459
 H         1.634210        -1.372987         1.888874
 H         4.332585        -1.013021         1.801209
 H         3.762385        -2.257486         0.874153
 H         5.152143        -0.260097        -0.415208
 H         2.275057         1.998940        -0.990739
 H         3.159831        -0.396553        -2.481886
