19
Iteration:  2320charge 0 multiplicity 1
 C         0.157076         0.402636         0.378213
 C         1.595895         0.078020         0.071279
 C         2.164501        -0.552605         1.304315
 C         3.547487        -1.224951         0.964252
 C         4.140051        -0.409575        -0.199806
 O         3.988916         1.042849         0.148538
 C         2.710781         1.084269        -0.525397
 C         3.116782        -0.207533        -1.312509
 O         1.825005        -0.877091        -1.002537
 H         0.174639         1.134116         1.233499
 H        -0.239659         1.160587        -0.422547
 H        -0.465143        -0.454510         0.593679
 H         2.323987         0.145981         2.144595
 H         1.572982        -1.318478         1.713197
 H         4.267236        -1.204876         1.764827
 H         3.191877        -2.163155         0.710257
 H         5.213867        -0.506149        -0.366064
 H         2.399116         2.000806        -1.130031
 H         3.366527        -0.262616        -2.416999
