19
Iteration:   275charge 0 multiplicity 1
 C         0.123986         0.484994         0.145742
 C         1.563369         0.089558         0.164179
 C         2.144036        -0.659373         1.406486
 C         3.575542        -1.154077         1.064364
 C         4.146700        -0.400877        -0.123581
 O         4.071227         1.125240         0.019026
 C         2.801046         1.007230        -0.542644
 C         3.038543        -0.259069        -1.276844
 O         1.781857        -0.896056        -0.939192
 H        -0.118752         1.243945         0.811931
 H        -0.087671         0.982120        -0.898903
 H        -0.697810        -0.288852         0.198896
 H         2.283714         0.036665         2.269064
 H         1.431960        -1.431073         1.656966
 H         4.282523        -1.009958         1.855626
 H         3.628259        -2.197271         0.838058
 H         5.142481        -0.771520        -0.361961
 H         2.505807         1.909845        -1.047457
 H         3.282156        -0.211656        -2.322562
