19
Iteration:  2675
 C         0.161273         0.514703         0.304665
 C         1.630192         0.106491         0.134086
 C         2.190599        -0.746835         1.331464
 C         3.498813        -1.262461         0.975469
 C         4.135561        -0.325938        -0.111025
 O         3.992358         1.169479         0.067530
 C         2.744282         1.051778        -0.616968
 C         3.123377        -0.265095        -1.247051
 O         1.759917        -0.839854        -0.996619
 H         0.102234         1.146864         1.256045
 H        -0.310738         1.083400        -0.442934
 H        -0.405862        -0.484367         0.403159
 H         2.327108        -0.111863         2.228133
 H         1.513457        -1.552433         1.752070
 H         4.287253        -1.480958         1.823668
 H         3.386965        -2.273758         0.505686
 H         5.232273        -0.658562        -0.408846
 H         2.454683         2.023291        -1.015954
 H         3.582590        -0.597812        -2.160626
