19
Iteration:  4480charge 0 multiplicity 1
 C         0.220940         0.662762         0.279355
 C         1.628576         0.110631         0.152260
 C         2.097287        -0.750040         1.340792
 C         3.522455        -1.243576         0.957124
 C         4.161603        -0.358678        -0.167890
 O         3.955814         1.100352         0.097230
 C         2.695789         1.006682        -0.617242
 C         3.053636        -0.200503        -1.300903
 O         1.921325        -0.945852        -0.894015
 H         0.083119         1.570067         0.834622
 H        -0.250903         0.803899        -0.715302
 H        -0.197185        -0.185206         0.860496
 H         2.162472        -0.090343         2.152477
 H         1.389191        -1.638327         1.399904
 H         3.953629        -1.245397         1.895447
 H         3.557535        -2.296852         0.616974
 H         5.262891        -0.501509        -0.264372
 H         2.257376         1.912055        -1.035270
 H         3.206862        -0.297413        -2.389595
