19
Iteration:  1080
 C         0.138595         0.400296         0.182892
 C         1.619538         0.103039         0.162340
 C         2.117250        -0.451945         1.407653
 C         3.424635        -1.284918         0.964198
 C         4.136487        -0.377713        -0.246269
 O         4.120502         1.063129         0.058791
 C         2.679172         1.032254        -0.476811
 C         3.039087        -0.163352        -1.304209
 O         1.911824        -0.920341        -0.866162
 H         0.036432         1.215917         0.976453
 H        -0.308829         0.511612        -0.798841
 H        -0.331089        -0.561793         0.277361
 H         2.600422         0.143126         2.174257
 H         1.371177        -1.027137         1.977399
 H         4.241945        -1.414259         1.671711
 H         3.224957        -2.232261         0.374861
 H         5.213635        -0.709066        -0.477073
 H         2.353396         2.078539        -0.804122
 H         3.246937        -0.149826        -2.400294
