19
Iteration:  4890
 C         0.154304         0.546527         0.187306
 C         1.667902         0.054532         0.091104
 C         2.295437        -0.657965         1.441664
 C         3.701796        -1.249575         1.068512
 C         4.143532        -0.287216        -0.200438
 O         3.924739         0.991733         0.226998
 C         2.666492         1.055599        -0.519174
 C         3.038852        -0.299985        -1.328025
 O         1.686280        -0.799442        -1.145922
 H         0.130080         1.618222         0.590563
 H        -0.627487         0.347546        -0.659639
 H        -0.412425        -0.013451         0.977540
 H         2.544388         0.169089         2.144362
 H         1.659019        -1.414374         1.857330
 H         4.508563        -0.994065         1.773186
 H         3.561178        -2.288917         1.011952
 H         5.146568        -0.657630        -0.406238
 H         2.349200         1.975997        -0.844418
 H         3.357945        -0.532482        -2.311775
