19
Iteration:  1873charge 0 multiplicity 1
 C         0.244773         0.568600         0.272427
 C         1.628713         0.022937         0.051176
 C         2.201347        -0.528886         1.351903
 C         3.597837        -1.212023         0.951011
 C         4.150479        -0.397137        -0.214322
 O         3.891152         1.008081         0.221388
 C         2.672912         1.053399        -0.473148
 C         3.035216        -0.172995        -1.333942
 O         1.817740        -1.027978        -1.032100
 H         0.432949         1.503207         0.865239
 H        -0.217018         1.020542        -0.695454
 H        -0.557438        -0.039256         0.683094
 H         2.347287         0.338262         2.054471
 H         1.543640        -1.330341         1.813737
 H         4.251144        -1.133932         1.847961
 H         3.475227        -2.298609         0.866496
 H         5.214196        -0.335766        -0.344862
 H         2.437925         2.017003        -0.643578
 H         3.368499        -0.212318        -2.413194
