19
Iteration:  4224
 C         0.224003         0.580009         0.166921
 C         1.675074         0.017504         0.173877
 C         2.304303        -0.603812         1.471595
 C         3.558873        -1.265364         1.040364
 C         4.067252        -0.386946        -0.151032
 O         3.928283         1.065987         0.146120
 C         2.669321         1.041861        -0.475612
 C         3.005418        -0.234318        -1.339344
 O         1.793741        -0.895558        -1.134840
 H        -0.125254         0.931648         1.213996
 H         0.062697         1.315220        -0.635450
 H        -0.553495        -0.222617        -0.094448
 H         2.779149         0.337083         1.936379
 H         1.717290        -1.130923         2.179027
 H         4.251785        -1.220202         1.954786
 H         3.548052        -2.301392         0.754993
 H         5.129296        -0.554733        -0.434848
 H         2.412315         2.067801        -0.905906
 H         3.188255        -0.510173        -2.465362
