19
Iteration:  3989
 C         0.246206         0.623823         0.244017
 C         1.547253        -0.033486         0.174461
 C         2.142492        -0.729934         1.360161
 C         3.517658        -1.177658         0.922010
 C         4.142746        -0.308136        -0.113482
 O         4.049489         1.132056         0.111697
 C         2.719975         1.038576        -0.541967
 C         3.106592        -0.240207        -1.246945
 O         1.772612        -0.918393        -1.008269
 H         0.262673         1.346521         1.138041
 H        -0.089165         0.881119        -0.845346
 H        -0.571201        -0.092463         0.465811
 H         2.306704        -0.004276         2.156989
 H         1.443813        -1.580997         1.756237
 H         4.152244        -1.481820         1.734584
 H         3.430161        -2.187088         0.358940
 H         5.124806        -0.549339        -0.669897
 H         2.366072         2.068452        -0.743197
 H         3.364441        -0.661210        -2.256975
