19
Iteration:  4491
 C         0.192093         0.587013         0.279001
 C         1.674246         0.120745         0.055505
 C         2.188667        -0.667424         1.287520
 C         3.588197        -1.305936         1.074498
 C         4.124089        -0.378015        -0.165939
 O         3.946839         1.103556         0.193010
 C         2.695356         1.066440        -0.594242
 C         3.056109        -0.259867        -1.344999
 O         1.818785        -0.911186        -0.932348
 H         0.212287         1.554168         0.767183
 H        -0.319611         0.684134        -0.705438
 H        -0.551402        -0.028357         0.846973
 H         2.185028        -0.209809         2.241870
 H         1.354354        -1.423423         1.440462
 H         4.302440        -1.100557         1.808028
 H         3.637614        -2.378733         0.815662
 H         5.101115        -0.599131        -0.654661
 H         2.380651         2.013320        -1.053326
 H         3.242596        -0.315268        -2.441826
