19
Iteration:  4209charge 0 multiplicity 1
 C         0.178811         0.561819         0.175203
 C         1.566549         0.014735         0.163656
 C         2.209646        -0.562440         1.489601
 C         3.586006        -1.234188         0.958489
 C         4.178622        -0.386455        -0.203683
 O         3.975156         1.075693         0.125817
 C         2.678878         0.960936        -0.549705
 C         3.072200        -0.225902        -1.315990
 O         1.798425        -0.876669        -0.968747
 H        -0.010842         1.023693         1.114130
 H         0.202295         1.377464        -0.548593
 H        -0.571830        -0.211649        -0.007607
 H         2.256397         0.185990         2.257937
 H         1.551378        -1.396922         1.875350
 H         4.400908        -1.406832         1.651707
 H         3.222147        -2.136780         0.482254
 H         5.209637        -0.651918        -0.499263
 H         2.207265         1.830785        -0.878000
 H         3.523930        -0.112608        -2.242772
