19
Iteration:  4463
 C         0.198587         0.602392         0.260134
 C         1.620685         0.025962         0.153774
 C         2.112729        -0.693263         1.421107
 C         3.496479        -1.157647         0.932863
 C         4.124806        -0.284138        -0.130088
 O         4.021083         1.148748         0.065453
 C         2.696898         0.992776        -0.489336
 C         3.115473        -0.306409        -1.278112
 O         1.834554        -0.995371        -1.016078
 H         0.396400         1.527684         0.899044
 H         0.035346         1.095161        -0.715005
 H        -0.721194         0.205753         0.710575
 H         2.173143        -0.109165         2.442101
 H         1.494478        -1.570215         1.402800
 H         4.378607        -1.473652         1.664913
 H         3.326322        -2.039078         0.302349
 H         5.169989        -0.548569        -0.476457
 H         2.294182         2.000593        -0.766567
 H         3.393345        -0.472437        -2.369548
