19
Iteration:  2480charge 0 multiplicity 1
 C         0.152644         0.515187         0.278293
 C         1.647522         0.108851         0.144479
 C         2.136732        -0.709932         1.389658
 C         3.503364        -1.202213         0.909338
 C         4.150678        -0.284026        -0.198506
 O         4.010548         1.115959         0.193325
 C         2.741417         1.043305        -0.552830
 C         3.003621        -0.222244        -1.420878
 O         1.914528        -0.981955        -0.923480
 H         0.048627         1.076151         1.300670
 H        -0.169253         1.242631        -0.406466
 H        -0.472779        -0.402718         0.307488
 H         2.315015         0.002881         2.217702
 H         1.302545        -1.507910         1.481165
 H         4.191912        -1.176290         1.766111
 H         3.329037        -2.218584         0.558201
 H         5.172550        -0.668771        -0.580456
 H         2.399682         2.006140        -0.760574
 H         3.074713        -0.255179        -2.466699
