19
Iteration:  1606charge 0 multiplicity 1
 C         0.186525         0.631566         0.274810
 C         1.557481         0.023284         0.047468
 C         2.204993        -0.588976         1.326773
 C         3.747713        -1.122492         1.091938
 C         4.158028        -0.372935        -0.153767
 O         3.892257         1.008238         0.244643
 C         2.733522         0.988927        -0.607455
 C         3.069742        -0.300846        -1.366586
 O         1.748576        -0.932564        -1.049421
 H        -0.020638         1.069891         1.237964
 H        -0.168944         1.438796        -0.432965
 H        -0.417462        -0.303651         0.198217
 H         2.239972         0.180469         2.156527
 H         1.423883        -1.320283         1.586506
 H         4.265439        -0.973053         2.023871
 H         3.410461        -2.164322         0.812371
 H         5.266556        -0.513354        -0.411885
 H         2.468989         1.936853        -0.925341
 H         3.398406        -0.441513        -2.401807
