19
Iteration:  3922
 C         0.193534         0.508703         0.275574
 C         1.604179         0.083892         0.075539
 C         2.181012        -0.610169         1.333434
 C         3.549202        -1.322643         1.009576
 C         4.214931        -0.377994        -0.119796
 O         4.081641         1.081228         0.161218
 C         2.688614         1.062105        -0.521876
 C         3.010430        -0.178866        -1.291455
 O         1.724999        -0.869655        -1.050501
 H        -0.047936         1.357709         0.967944
 H        -0.180851         0.600031        -0.787171
 H        -0.442980        -0.334168         0.602007
 H         2.367778         0.220754         2.025714
 H         1.570960        -1.439039         1.790921
 H         4.050738        -1.348251         1.983142
 H         3.399952        -2.346849         0.560596
 H         5.242510        -0.748220        -0.397635
 H         2.422133         2.050208        -0.989567
 H         3.427516        -0.145348        -2.332475
