19
Iteration:   463
 C         0.136611         0.439031         0.185029
 C         1.597853         0.095496         0.118223
 C         2.252870        -0.433375         1.427957
 C         3.473899        -1.194744         0.965185
 C         4.108959        -0.429757        -0.182916
 O         3.980782         1.050264         0.158158
 C         2.705423         1.049617        -0.547238
 C         3.067370        -0.229497        -1.310968
 O         1.919903        -0.942160        -0.950733
 H         0.117050         1.220836         0.919516
 H        -0.271880         0.798417        -0.849048
 H        -0.392329        -0.513466         0.460886
 H         2.559614         0.406238         2.062439
 H         1.458787        -1.041650         1.914183
 H         4.163482        -1.656146         1.715787
 H         2.916694        -2.068521         0.547669
 H         5.186744        -0.748718        -0.358494
 H         2.385182         2.056579        -0.884359
 H         3.372378        -0.514200        -2.380360
