19
Iteration:  3064
 C         0.255682         0.543492         0.342369
 C         1.586129         0.119377         0.107386
 C         2.126731        -0.633233         1.306306
 C         3.510512        -1.254891         0.920896
 C         4.189454        -0.386714        -0.213588
 O         3.945545         1.094520         0.181405
 C         2.662454         1.083824        -0.588022
 C         3.117461        -0.273330        -1.255725
 O         1.887907        -0.895794        -0.958153
 H         0.259420         1.301052         1.171292
 H        -0.419229         0.847596        -0.574560
 H        -0.523894        -0.269662         0.703558
 H         2.304652         0.081901         2.211658
 H         1.444622        -1.490732         1.565094
 H         4.144226        -1.448680         1.806738
 H         3.217427        -2.274070         0.495649
 H         5.217333        -0.704340        -0.492602
 H         2.212275         2.018620        -1.226350
 H         3.449677        -0.390103        -2.338698
