19
Iteration:   301charge 0 multiplicity 1
 C         0.239772         0.482311         0.193281
 C         1.613703         0.013602         0.052100
 C         2.308691        -0.411244         1.453352
 C         3.578051        -1.181112         1.103797
 C         4.121394        -0.407030        -0.111170
 O         3.928601         1.032545         0.203163
 C         2.679169         0.957259        -0.524811
 C         3.069686        -0.279049        -1.341707
 O         1.737562        -0.907270        -1.150879
 H        -0.052631         1.207250         1.000265
 H        -0.125781         0.987343        -0.695337
 H        -0.485556        -0.314580         0.255838
 H         2.586592         0.528996         1.895344
 H         1.501085        -0.892652         2.064522
 H         4.451995        -1.265988         1.806444
 H         3.262510        -2.163934         0.788624
 H         5.193330        -0.720116        -0.352127
 H         2.337839         2.006253        -0.716356
 H         3.361649        -0.251613        -2.457001
