19
Iteration:   478charge 0 multiplicity 1
 C         0.130331         0.452468         0.129323
 C         1.611909         0.153177         0.078923
 C         2.259066        -0.383427         1.353909
 C         3.606175        -1.221560         0.947263
 C         4.145638        -0.400338        -0.196013
 O         3.949166         0.927675         0.253367
 C         2.754987         1.032459        -0.536982
 C         3.038951        -0.244050        -1.303301
 O         1.782341        -0.946181        -0.909745
 H        -0.343428         1.149182         0.993562
 H        -0.125330         0.732646        -0.834262
 H        -0.437834        -0.407991         0.396411
 H         2.342126         0.444667         2.053308
 H         1.565163        -1.131084         1.870596
 H         4.211466        -0.993664         1.831021
 H         3.586889        -2.276592         0.822232
 H         5.176977        -0.558551        -0.601730
 H         2.521520         2.024718        -0.973884
 H         3.251846        -0.130036        -2.400426
