19
Iteration:  2540
 C         0.215581         0.501023         0.277758
 C         1.618350         0.026010         0.067247
 C         2.261240        -0.631905         1.368945
 C         3.668754        -1.127861         0.993850
 C         4.159895        -0.396345        -0.222828
 O         3.891852         0.987292         0.298457
 C         2.667240         1.009159        -0.558577
 C         3.058822        -0.219121        -1.314929
 O         1.721675        -0.819577        -1.075710
 H         0.222431         1.302778         0.922614
 H        -0.127034         0.790104        -0.744977
 H        -0.545762        -0.196549         0.617949
 H         2.259488         0.182079         2.161401
 H         1.690318        -1.382157         1.859526
 H         4.476186        -1.079252         1.762065
 H         3.603231        -2.284447         0.788692
 H         5.091065        -0.530210        -0.680481
 H         2.415407         2.092205        -0.824704
 H         3.311538        -0.283078        -2.435089
