19
Iteration:   578
 C         0.244858         0.620278         0.218960
 C         1.616628         0.009451         0.063543
 C         2.279214        -0.567098         1.339574
 C         3.674071        -1.217003         1.076745
 C         4.148621        -0.382611        -0.101111
 O         3.830156         1.099676         0.195517
 C         2.699802         0.947633        -0.546231
 C         3.062949        -0.358465        -1.327239
 O         1.710930        -0.878783        -1.080203
 H         0.238716         1.581479         0.927977
 H        -0.075156         0.799182        -0.800959
 H        -0.481332        -0.024720         0.743324
 H         2.283567         0.389645         1.977297
 H         1.596568        -1.249401         1.870589
 H         4.369446        -1.072218         1.874674
 H         3.638315        -2.296235         0.919689
 H         5.177009        -0.393103        -0.410368
 H         2.402040         1.866994        -1.050625
 H         3.488843        -0.538096        -2.263114
