19
Iteration:  3850
 C         0.200352         0.613080         0.138667
 C         1.602451        -0.015618         0.125392
 C         2.286262        -0.631694         1.451576
 C         3.706249        -1.236130         0.986318
 C         4.117890        -0.363759        -0.263103
 O         3.905386         1.031956         0.277449
 C         2.666499         0.994532        -0.525630
 C         3.074423        -0.239837        -1.292190
 O         1.697089        -0.814427        -1.058612
 H         0.017156         1.040499         1.111957
 H         0.199007         1.374346        -0.701781
 H        -0.689036         0.038211        -0.096746
 H         2.458427         0.234333         2.216677
 H         1.669302        -1.408576         2.029333
 H         4.715592        -1.304052         1.695214
 H         3.411097        -2.378658         0.875902
 H         5.198124        -0.794103        -0.418413
 H         2.244926         1.886320        -0.958778
 H         3.297142        -0.386333        -2.378275
