19
Iteration:  1961
 C         0.156652         0.480053         0.322925
 C         1.614043         0.154426         0.089331
 C         2.205274        -0.525509         1.339666
 C         3.576097        -1.160267         1.033141
 C         4.122563        -0.432713        -0.239701
 O         3.932491         0.927278         0.234350
 C         2.714476         1.022718        -0.569706
 C         3.061251        -0.193419        -1.383411
 O         1.863560        -0.900915        -1.008068
 H         0.158744         0.996661         1.261048
 H        -0.357207         1.152212        -0.493672
 H        -0.370093        -0.445173         0.278634
 H         2.361481         0.196711         2.158098
 H         1.459603        -1.256370         1.759642
 H         4.321783        -0.989070         1.852655
 H         3.499545        -2.207912         0.691095
 H         5.200000        -0.421617        -0.412694
 H         2.298372         1.862745        -0.991840
 H         3.304936        -0.229445        -2.503052
