19
Iteration:  4140
 C         0.189166         0.565835         0.286346
 C         1.549472        -0.056241         0.146440
 C         2.197756        -0.573978         1.377026
 C         3.706576        -1.235422         1.033618
 C         4.191488        -0.386075        -0.128966
 O         4.000899         1.077815         0.211062
 C         2.726587         0.989386        -0.468488
 C         3.010702        -0.217110        -1.347856
 O         1.704483        -0.887581        -1.230955
 H         0.331258         1.578853         0.695768
 H        -0.215054         0.870090        -0.670669
 H        -0.419784         0.021535         0.935074
 H         2.245803         0.337813         2.008606
 H         1.391001        -1.200294         1.880559
 H         4.130598        -0.922461         1.958858
 H         3.652400        -2.369875         0.807218
 H         5.188522        -0.608003        -0.531371
 H         2.223198         1.946061        -0.816962
 H         3.341928        -0.511186        -2.404368
