19
Iteration:  3471charge 0 multiplicity 1
 C         0.169080         0.552009         0.069114
 C         1.566415         0.102602         0.160028
 C         2.367044        -0.660445         1.434523
 C         3.691399        -1.273133         1.044618
 C         4.108877        -0.349794        -0.218800
 O         3.957475         0.996867         0.242964
 C         2.667736         1.044633        -0.504415
 C         2.968081        -0.237044        -1.281921
 O         1.712928        -0.845045        -1.081903
 H         0.151059         1.261907         0.867246
 H        -0.015276         1.099092        -0.864938
 H        -0.429107        -0.372504         0.315474
 H         2.531144         0.200245         2.185115
 H         1.753916        -1.366206         1.976598
 H         4.477439        -1.317780         1.842459
 H         3.599874        -2.345957         0.705496
 H         5.131345        -0.421396        -0.488646
 H         2.446122         2.141553        -0.866089
 H         3.173206        -0.228095        -2.359015
