19
Iteration:   871
 C         0.175443         0.549074         0.221582
 C         1.623040         0.021877         0.123105
 C         2.282668        -0.643263         1.391592
 C         3.736840        -1.143662         1.132785
 C         4.090728        -0.406128        -0.200163
 O         4.018259         1.061034         0.182619
 C         2.652438         0.954702        -0.562394
 C         2.984512        -0.251812        -1.272020
 O         1.683683        -0.837615        -1.143777
 H        -0.119917         0.959349         1.242758
 H         0.117520         1.300936        -0.463392
 H        -0.529799        -0.147905        -0.106879
 H         2.283841        -0.010645         2.225593
 H         1.526462        -1.415630         1.669489
 H         4.224775        -0.729276         1.989304
 H         3.760550        -2.218669         0.946360
 H         5.101418        -0.579196        -0.646365
 H         2.434747         1.911466        -0.917213
 H         3.435632        -0.387843        -2.251020
