19
Iteration:   255
 C         0.205038         0.577388         0.169708
 C         1.615469         0.186374         0.120488
 C         2.047202        -0.685710         1.325498
 C         3.585709        -1.073112         1.010660
 C         4.146796        -0.320146        -0.214036
 O         4.052391         1.025013         0.113952
 C         2.721478         1.073861        -0.537446
 C         3.011472        -0.338682        -1.318280
 O         1.883700        -0.984530        -0.818886
 H         0.008112         1.239996         0.885173
 H        -0.283190         0.996693        -0.827538
 H        -0.382769        -0.384041         0.440209
 H         1.820537        -0.386403         2.363929
 H         1.455432        -1.586108         1.169932
 H         4.128005        -0.772332         1.902180
 H         3.499909        -2.062950         0.926871
 H         5.113995        -0.774304        -0.636410
 H         2.309888         1.962584        -0.949947
 H         3.380787        -0.688478        -2.341468
