19
Iteration:  3171
 C         0.200359         0.498997         0.330583
 C         1.613721         0.054585         0.088356
 C         2.270047        -0.549135         1.293742
 C         3.545182        -1.305428         0.996235
 C         4.147949        -0.334451        -0.086997
 O         3.935997         1.033466         0.188334
 C         2.732490         1.060070        -0.611836
 C         3.047901        -0.228552        -1.296317
 O         1.766161        -0.854026        -1.091037
 H        -0.021964         0.842823         1.343166
 H        -0.194954         1.212678        -0.386120
 H        -0.258510        -0.433282         0.447312
 H         2.444056         0.206383         2.056556
 H         1.521005        -1.095116         1.943732
 H         4.169972        -1.499038         1.912332
 H         3.354169        -2.351468         0.586648
 H         5.224232        -0.570415        -0.316685
 H         2.389461         2.007571        -1.023342
 H         3.461602        -0.313332        -2.364277
