19
Iteration:   234
 C         0.217154         0.671895         0.209453
 C         1.622924        -0.000886         0.109338
 C         2.178094        -0.654328         1.363171
 C         3.617313        -1.136156         1.093493
 C         4.133070        -0.423657        -0.139080
 O         3.913498         1.082012         0.139755
 C         2.707567         0.999731        -0.624451
 C         3.060852        -0.259732        -1.317876
 O         1.807717        -0.966336        -0.992672
 H         0.189385         1.439457         0.923310
 H        -0.062176         1.067901        -0.824443
 H        -0.513728        -0.103316         0.531368
 H         2.037905         0.053271         2.176746
 H         1.552231        -1.524321         1.622237
 H         4.211420        -0.706613         1.932210
 H         3.682962        -2.193164         1.036899
 H         5.260965        -0.603619        -0.303040
 H         2.264746         1.899070        -1.040678
 H         3.409216        -0.319024        -2.410630
