19
Iteration:    64charge 0 multiplicity 1
 C         0.219635         0.571970         0.202230
 C         1.648894         0.100890         0.142675
 C         2.136964        -0.662462         1.450673
 C         3.480424        -1.290746         1.058991
 C         4.205050        -0.413938        -0.050551
 O         3.961158         1.228264        -0.025612
 C         2.735127         0.993927        -0.638556
 C         3.119327        -0.310637        -1.214970
 O         1.774117        -0.893891        -1.018823
 H         0.210236         1.582506         0.840021
 H        -0.177564         0.769404        -0.732378
 H        -0.385137        -0.131291         0.712863
 H         2.374757         0.112993         2.284720
 H         1.362356        -1.399535         1.939100
 H         4.077100        -1.474939         1.907571
 H         3.267735        -2.303385         0.497024
 H         5.239011        -0.584304        -0.258159
 H         2.312060         1.899471        -1.330213
 H         3.428527        -0.455825        -2.232343
