19
Iteration:  2043
 C         0.200119         0.572379         0.257978
 C         1.581573         0.065243         0.082514
 C         2.198551        -0.661314         1.359553
 C         3.625498        -1.163173         0.980032
 C         4.167842        -0.359471        -0.197152
 O         3.981250         1.038022         0.195662
 C         2.698087         1.014840        -0.536660
 C         3.022515        -0.210665        -1.347230
 O         1.761436        -0.940101        -0.980500
 H         0.081513         1.513873         0.900412
 H        -0.037771         0.818230        -0.721910
 H        -0.477683        -0.228315         0.683482
 H         2.247161        -0.139479         2.355353
 H         1.544267        -1.551418         1.460070
 H         4.250711        -0.826428         1.779069
 H         3.867478        -2.205465         1.002493
 H         5.219835        -0.415880        -0.450032
 H         2.216713         1.907174        -0.966764
 H         3.289762        -0.307370        -2.346643
