19
Iteration:  1544
 C         0.190473         0.493784         0.136931
 C         1.620127         0.042978         0.242180
 C         2.196598        -0.527501         1.440612
 C         3.458044        -1.202897         0.925082
 C         4.169824        -0.357631        -0.116255
 O         4.068722         1.102835         0.072448
 C         2.671723         0.986372        -0.495914
 C         3.094473        -0.280066        -1.280464
 O         1.765408        -0.885425        -0.997640
 H        -0.184079         1.377136         0.799799
 H        -0.032326         0.666089        -0.886391
 H        -0.439780        -0.444484         0.359272
 H         2.590777         0.220417         2.235419
 H         1.558088        -1.348756         1.889468
 H         4.124518        -1.575960         1.816240
 H         3.412093        -2.107642         0.369569
 H         5.191268        -0.585202        -0.349000
 H         2.143874         1.961478        -0.963452
 H         3.493303        -0.269873        -2.363908
