19
Iteration:  4308charge 0 multiplicity 1
 C         0.240784         0.640608         0.228912
 C         1.657288         0.021675         0.166412
 C         2.153175        -0.714460         1.383855
 C         3.582526        -1.160308         1.005659
 C         4.129090        -0.369795        -0.134565
 O         3.966074         1.071011         0.161411
 C         2.674706         1.004446        -0.488924
 C         3.071340        -0.313311        -1.358679
 O         1.757890        -0.868485        -1.061858
 H         0.316459         1.629466         0.651357
 H        -0.103072         0.722054        -0.817487
 H        -0.609491        -0.039497         0.592036
 H         2.275679         0.043345         2.200438
 H         1.449192        -1.469178         1.789606
 H         4.469176        -1.063587         1.738554
 H         3.714017        -2.180430         0.585812
 H         5.187061        -0.629410        -0.395315
 H         2.235504         1.949414        -0.828452
 H         3.389170        -0.282396        -2.412438
