19
Iteration:  3902charge 0 multiplicity 1
 C         0.191148         0.480297         0.337474
 C         1.615866         0.108697         0.159904
 C         2.086148        -0.650552         1.446602
 C         3.461686        -1.237130         0.959459
 C         4.078020        -0.340683        -0.133016
 O         4.008769         1.090953         0.049892
 C         2.808244         1.005316        -0.545843
 C         3.114431        -0.231013        -1.337055
 O         1.891255        -0.835727        -1.058211
 H         0.184572         1.122291         1.264054
 H        -0.305887         1.049230        -0.533261
 H        -0.498779        -0.314358         0.586927
 H         2.190093        -0.090092         2.319638
 H         1.482664        -1.610786         1.563939
 H         4.115924        -1.262357         1.796193
 H         3.094800        -2.101056         0.356363
 H         5.083015        -0.885966        -0.361113
 H         2.401130         1.988989        -0.843201
 H         3.609037        -0.363353        -2.344277
