19
Iteration:   322charge 0 multiplicity 1
 C         0.213200         0.500622         0.255206
 C         1.596903         0.090550         0.066198
 C         2.223727        -0.418274         1.329134
 C         3.476642        -1.203370         0.960613
 C         4.123006        -0.406262        -0.181798
 O         3.886585         0.988303         0.290357
 C         2.731079         1.033191        -0.668894
 C         3.072540        -0.264284        -1.309146
 O         1.916050        -0.964367        -0.953747
 H         0.090292         1.136194         1.161311
 H        -0.388881         1.086053        -0.494254
 H        -0.454039        -0.356231         0.468550
 H         2.515815         0.454176         1.890981
 H         1.537297        -1.102559         1.905752
 H         4.142504        -1.162263         1.853622
 H         3.322637        -2.210610         0.727406
 H         5.234146        -0.499939        -0.471086
 H         2.561303         2.031985        -1.119094
 H         3.369581        -0.523267        -2.395182
