19
Iteration:  2223charge 0 multiplicity 1
 C         0.247877         0.596993         0.318916
 C         1.615375         0.005519         0.143054
 C         2.225873        -0.751696         1.351973
 C         3.612860        -1.271526         1.014782
 C         4.166453        -0.318795        -0.111051
 O         3.890607         1.131505         0.087461
 C         2.638192         1.000627        -0.569744
 C         3.128414        -0.285447        -1.309889
 O         1.742060        -0.836004        -1.029335
 H         0.216053         1.430585         0.987235
 H        -0.191495         1.044247        -0.671440
 H        -0.426793        -0.129263         0.679755
 H         2.273897         0.028739         2.113770
 H         1.370393        -1.323244         1.685361
 H         4.229165        -1.141827         1.905929
 H         3.799424        -2.202263         0.524280
 H         5.240438        -0.469393        -0.367023
 H         2.394480         2.069174        -1.041880
 H         3.364294        -0.515801        -2.475791
