19
Iteration:  3996
 C         0.146730         0.600185         0.265575
 C         1.585320        -0.014696         0.190081
 C         2.125307        -0.733790         1.386245
 C         3.511450        -1.236086         0.953965
 C         4.192417        -0.255127        -0.140576
 O         4.061717         1.131205         0.098926
 C         2.790706         1.006274        -0.583248
 C         3.092054        -0.260552        -1.269852
 O         1.731351        -0.908018        -1.023525
 H         0.117149         1.284609         1.139674
 H        -0.056751         1.160202        -0.649015
 H        -0.651543        -0.114661         0.531382
 H         2.304203        -0.058033         2.294683
 H         1.497244        -1.608368         1.609668
 H         4.189873        -1.315723         1.846329
 H         3.367448        -2.102304         0.299564
 H         5.238414        -0.491541        -0.293093
 H         2.391467         1.984882        -1.004009
 H         3.602930        -0.355673        -2.281989
