19
Iteration:  4863
 C         0.166031         0.490646         0.258684
 C         1.658019         0.113503         0.150905
 C         2.128071        -0.605477         1.361495
 C         3.510586        -1.200497         0.901122
 C         4.192399        -0.388453        -0.226149
 O         3.976280         1.120469         0.127429
 C         2.728989         1.021678        -0.498311
 C         3.051854        -0.201792        -1.256929
 O         1.864052        -0.961860        -0.972814
 H         0.126663         1.489056         0.686724
 H        -0.421761         0.490243        -0.619558
 H        -0.377251        -0.028961         1.081621
 H         2.270691        -0.006453         2.271921
 H         1.381121        -1.425031         1.567019
 H         4.282705        -1.308733         1.735666
 H         3.309478        -2.326833         0.644973
 H         5.160640        -0.868500        -0.412756
 H         2.298332         1.977842        -1.029306
 H         3.315325        -0.054630        -2.363367
