19
Iteration:  3531
 C         0.168518         0.469047         0.348650
 C         1.602970         0.144229         0.143619
 C         2.187625        -0.652182         1.278865
 C         3.493579        -1.258351         0.968433
 C         4.163046        -0.401269        -0.149971
 O         3.996998         1.147107         0.158168
 C         2.733869         1.039437        -0.586635
 C         3.106741        -0.283287        -1.332248
 O         1.846313        -0.825543        -0.976637
 H         0.014573         0.953666         1.405025
 H        -0.242107         1.134463        -0.461104
 H        -0.511246        -0.359208         0.373954
 H         2.244378        -0.062982         2.166718
 H         1.381097        -1.449249         1.419578
 H         4.131730        -1.437636         1.851152
 H         3.197511        -2.231760         0.526036
 H         5.244054        -0.613709        -0.527228
 H         2.262191         1.950883        -1.008438
 H         3.333416        -0.483752        -2.370466
