19
Iteration:  4455charge 0 multiplicity 1
 C         0.208601         0.638209         0.225117
 C         1.603239        -0.050708         0.097992
 C         2.195954        -0.676722         1.433716
 C         3.571415        -1.199002         0.988941
 C         4.130784        -0.300414        -0.157073
 O         4.044508         1.175074         0.125887
 C         2.687152         0.984569        -0.522387
 C         3.050066        -0.277091        -1.265364
 O         1.778554        -0.970192        -1.048762
 H         0.385916         1.464830         0.994937
 H         0.001612         1.200309        -0.762349
 H        -0.637548         0.014032         0.538179
 H         2.179418         0.080407         2.224389
 H         1.542309        -1.545383         1.658896
 H         4.125967        -1.514680         1.895156
 H         3.341882        -2.143147         0.463710
 H         5.078343        -0.544474        -0.473918
 H         2.163392         1.911388        -0.773795
 H         3.304597        -0.399869        -2.284519
