19
Iteration:  4789
 C         0.148155         0.522115         0.253155
 C         1.544893         0.038466         0.038551
 C         2.221829        -0.584026         1.399453
 C         3.646203        -1.148914         1.029587
 C         4.142023        -0.432248        -0.223110
 O         3.962565         1.024506         0.153313
 C         2.732375         1.060084        -0.546798
 C         2.996174        -0.252371        -1.331818
 O         1.794489        -0.873914        -1.009587
 H        -0.043156         0.625050         1.371252
 H        -0.037318         1.462752        -0.269473
 H        -0.619024        -0.299589         0.094104
 H         2.457057         0.094644         2.246528
 H         1.740990        -1.411845         1.879790
 H         4.299334        -1.018348         1.925915
 H         3.592383        -2.213787         1.104506
 H         5.241142        -0.592801        -0.412716
 H         2.722197         2.008625        -0.997106
 H         3.365468        -0.273649        -2.351507
