19
Iteration:  4589
 C         0.146073         0.602276         0.175320
 C         1.587799         0.106620         0.170836
 C         2.287149        -0.632638         1.331798
 C         3.656890        -1.283544         1.010779
 C         4.094794        -0.379132        -0.139963
 O         3.967295         1.088519         0.139286
 C         2.673427         1.010866        -0.568689
 C         3.035517        -0.261485        -1.249627
 O         1.794254        -0.905988        -0.973645
 H        -0.101232         1.030266         1.181356
 H        -0.062310         1.500696        -0.501424
 H        -0.638991        -0.222392        -0.067120
 H         2.564656         0.116504         2.061370
 H         1.613551        -1.371833         1.899625
 H         4.332547        -1.473078         1.835487
 H         3.433410        -2.208916         0.398569
 H         5.143805        -0.465627        -0.512473
 H         2.388745         1.979705        -1.066262
 H         3.377753        -0.532892        -2.313555
