19
Iteration:  3782
 C         0.159567         0.480888         0.317226
 C         1.601726         0.120592         0.095464
 C         2.234361        -0.638831         1.386099
 C         3.601492        -1.296708         1.007645
 C         4.119468        -0.395473        -0.094188
 O         3.987805         1.040659         0.205807
 C         2.731574         1.066237        -0.566925
 C         3.092524        -0.285468        -1.341574
 O         1.715535        -0.782457        -1.147349
 H         0.127058         1.476788         0.834233
 H        -0.255887         0.612758        -0.708643
 H        -0.486608        -0.161950         0.880669
 H         2.340665         0.241116         2.069631
 H         1.464317        -1.376408         1.836417
 H         4.369638        -1.207368         1.904967
 H         3.441004        -2.354858         0.548326
 H         5.245519        -0.500436        -0.382062
 H         2.551489         2.111246        -0.855683
 H         3.474931        -0.358292        -2.384270
