19
Iteration:  2672charge 0 multiplicity 1
 C         0.177323         0.491913         0.278573
 C         1.633832         0.065646         0.141268
 C         2.179315        -0.756275         1.335906
 C         3.527469        -1.242590         1.001083
 C         4.131417        -0.367373        -0.097821
 O         3.994429         1.171606         0.056269
 C         2.732751         1.094738        -0.597903
 C         3.123449        -0.254676        -1.255100
 O         1.738754        -0.833899        -0.989791
 H         0.159446         1.049587         1.157256
 H        -0.186829         1.173601        -0.429405
 H        -0.474248        -0.399407         0.412726
 H         2.416498         0.020405         2.239805
 H         1.479435        -1.536409         1.666185
 H         4.273182        -1.443107         1.823230
 H         3.417037        -2.221623         0.380717
 H         5.090550        -0.670122        -0.420167
 H         2.511678         2.122303        -1.009871
 H         3.530576        -0.638050        -2.231122
