19
Iteration:  4270
 C         0.075870         0.527011         0.319945
 C         1.581993         0.166665         0.167899
 C         2.111214        -0.644222         1.378419
 C         3.540822        -1.201967         0.909387
 C         4.111078        -0.374861        -0.139296
 O         4.048291         1.063882         0.113320
 C         2.800343         1.013008        -0.620127
 C         3.123721        -0.237853        -1.320889
 O         1.861869        -0.912816        -0.981461
 H        -0.094527         1.262124         1.155317
 H        -0.376046         0.852544        -0.662544
 H        -0.554006        -0.343521         0.516193
 H         2.264716         0.070923         2.201102
 H         1.365371        -1.418478         1.651345
 H         4.166621        -1.233858         1.779742
 H         3.489001        -2.317283         0.628992
 H         5.139492        -0.681977        -0.266133
 H         2.440465         2.076355        -0.749698
 H         3.479738        -0.425671        -2.384073
