19
Iteration:  3548charge 0 multiplicity 1
 C         0.192546         0.545804         0.322667
 C         1.622468         0.098669         0.093026
 C         2.172367        -0.666658         1.360699
 C         3.629977        -1.256630         0.941846
 C         4.144128        -0.329601        -0.091989
 O         3.962309         1.049635         0.148853
 C         2.755814         0.990743        -0.580091
 C         3.078690        -0.251747        -1.250207
 O         1.674980        -0.811406        -1.103320
 H         0.188745         0.976029         1.286030
 H        -0.172327         0.953329        -0.604199
 H        -0.383341        -0.429778         0.467497
 H         2.207441         0.102529         2.201084
 H         1.498246        -1.423543         1.759578
 H         4.203499        -1.268383         1.893559
 H         3.884766        -2.249491         0.477098
 H         5.176785        -0.545933        -0.250132
 H         2.474793         2.063240        -0.931128
 H         3.583257        -0.323826        -2.257728
