19
Iteration:  3284
 C         0.224556         0.592339         0.364664
 C         1.594317         0.014231         0.058985
 C         2.178192        -0.576055         1.309975
 C         3.579237        -1.186272         0.950544
 C         4.122702        -0.377685        -0.220310
 O         3.925126         0.994550         0.332558
 C         2.694312         0.983950        -0.520824
 C         3.094197        -0.220040        -1.347459
 O         1.815307        -0.931483        -1.117282
 H         0.232020         1.352229         1.052464
 H        -0.206631         1.116312        -0.489861
 H        -0.455189        -0.174993         0.737841
 H         2.351557         0.409870         1.874587
 H         1.493004        -1.143309         1.896757
 H         4.333891        -1.012374         1.706376
 H         3.746952        -2.245336         0.701064
 H         5.132583        -0.632898        -0.298607
 H         2.399890         1.960252        -1.058676
 H         3.289158        -0.185424        -2.386997
