19
Iteration:  1801
 C         0.162652         0.503155         0.203492
 C         1.559508         0.003844         0.170951
 C         2.207804        -0.507704         1.428659
 C         3.546060        -1.137833         0.990540
 C         4.113565        -0.400375        -0.262487
 O         4.003668         1.007798         0.195423
 C         2.739302         0.992739        -0.508404
 C         3.067157        -0.174095        -1.325133
 O         1.812267        -0.939891        -1.033494
 H         0.065524         1.145985         1.051007
 H        -0.191527         1.110450        -0.687670
 H        -0.552951        -0.333261         0.198158
 H         2.400490         0.152034         2.223944
 H         1.526816        -1.293875         1.809227
 H         4.344413        -0.892060         1.699690
 H         3.745340        -2.225243         0.819983
 H         5.142049        -0.812105        -0.593651
 H         2.542685         2.171930        -0.749382
 H         3.185841        -0.243377        -2.405525
