19
Iteration:  2053
 C         0.186578         0.601957         0.235058
 C         1.620572         0.048450         0.188101
 C         2.229484        -0.685300         1.304179
 C         3.728265        -1.115589         1.079689
 C         4.200330        -0.427557        -0.219123
 O         3.873493         1.044529         0.184726
 C         2.665518         1.022068        -0.530544
 C         3.057511        -0.272640        -1.334080
 O         1.737833        -0.864079        -1.080578
 H         0.103443         1.436251         1.027632
 H        -0.326994         0.832456        -0.666505
 H        -0.498561        -0.239765         0.615225
 H         2.256258         0.025260         2.193105
 H         1.617353        -1.583526         1.637499
 H         4.330571        -0.846158         1.921802
 H         3.598885        -2.189800         0.938156
 H         5.209686        -0.772866        -0.472396
 H         2.337370         1.994424        -0.883823
 H         3.346521        -0.371223        -2.333510
