19
Iteration:  1128charge 0 multiplicity 1
 C         0.222348         0.649921         0.278462
 C         1.639039         0.085716         0.054964
 C         2.215218        -0.591090         1.291336
 C         3.682308        -1.200358         1.040528
 C         4.160562        -0.436466        -0.198314
 O         3.828606         1.030458         0.229237
 C         2.655898         0.986477        -0.552775
 C         3.088918        -0.286562        -1.289769
 O         1.761181        -0.926617        -1.043668
 H         0.373352         1.429995         0.949004
 H        -0.349122         0.897052        -0.654156
 H        -0.359143        -0.208494         0.670468
 H         2.252136         0.132454         2.154158
 H         1.619787        -1.393818         1.678747
 H         4.289781        -0.646719         1.863793
 H         3.850515        -2.244066         1.054279
 H         5.173208        -0.520366        -0.497649
 H         2.413429         1.964466        -1.019120
 H         3.338056        -0.341350        -2.336891
