19
Iteration:  4418
 C         0.148135         0.515451         0.190172
 C         1.614286         0.102899         0.091188
 C         2.308111        -0.460550         1.414202
 C         3.630233        -1.178155         1.021555
 C         4.098064        -0.437820        -0.272506
 O         3.929488         0.918175         0.328476
 C         2.707898         1.053015        -0.570283
 C         3.030699        -0.271167        -1.375212
 O         1.792083        -0.843640        -1.017659
 H        -0.162259         0.945545         1.177284
 H        -0.289377         1.119237        -0.600226
 H        -0.376503        -0.501908         0.237693
 H         2.249570         0.307260         2.300903
 H         1.710313        -1.359743         1.672125
 H         4.550177        -1.033159         1.799792
 H         3.336720        -2.245500         0.898926
 H         5.130111        -0.651739        -0.778920
 H         2.427270         2.084853        -0.913723
 H         3.445864        -0.513192        -2.426059
