19
Iteration:  1020charge 0 multiplicity 1
 C         0.194670         0.613404         0.311571
 C         1.580339         0.007042         0.080543
 C         2.216723        -0.717317         1.331240
 C         3.696896        -1.156792         1.108048
 C         4.164119        -0.365092        -0.038289
 O         3.932829         1.130174         0.077455
 C         2.712952         0.998821        -0.591158
 C         3.036753        -0.289125        -1.321523
 O         1.730199        -0.914733        -1.100404
 H         0.181731         1.078224         1.229635
 H         0.164879         1.488471        -0.357953
 H        -0.691361        -0.047036         0.389687
 H         2.081048         0.081402         2.139473
 H         1.562670        -1.569160         1.541815
 H         4.142444        -1.024645         2.114636
 H         3.894627        -2.149876         0.739402
 H         5.169917        -0.588594        -0.284259
 H         2.420493         1.944628        -1.018004
 H         3.249859        -0.525149        -2.372417
