19
Iteration:  4047
 C         0.195839         0.528063         0.229262
 C         1.596173         0.004043         0.094262
 C         2.205050        -0.514621         1.411804
 C         3.601809        -1.132300         1.038758
 C         4.151439        -0.469449        -0.228902
 O         3.980835         1.019493         0.300959
 C         2.761882         0.955410        -0.519972
 C         2.962399        -0.200985        -1.428480
 O         1.764087        -0.859200        -1.094032
 H         0.009190         0.865681         1.223416
 H        -0.123715         1.340398        -0.392181
 H        -0.395941        -0.424299         0.122566
 H         2.442106         0.210319         2.165726
 H         1.603961        -1.252014         1.883172
 H         4.364949        -0.956354         1.829836
 H         3.590981        -2.132068         0.741366
 H         5.185491        -0.743256        -0.442618
 H         2.495110         1.931244        -0.840443
 H         3.227823        -0.220003        -2.437144
