19
Iteration:  4777
 C         0.092499         0.513750         0.305506
 C         1.594144         0.094829         0.135900
 C         2.166884        -0.573567         1.345602
 C         3.585141        -1.187929         1.015727
 C         4.147959        -0.409220        -0.208556
 O         4.083291         1.060055         0.111858
 C         2.686849         1.012697        -0.565280
 C         3.102279        -0.203262        -1.282508
 O         1.810520        -0.940883        -0.982664
 H        -0.056622         0.707452         1.391161
 H        -0.265922         1.394365        -0.221118
 H        -0.531529        -0.325563        -0.128396
 H         2.119696         0.182971         2.127423
 H         1.395589        -1.313624         1.539333
 H         4.319595        -0.852965         1.784884
 H         3.594671        -2.269899         0.784691
 H         5.070666        -0.814980        -0.679429
 H         2.200909         1.897430        -0.930262
 H         3.367291        -0.251986        -2.364056
