19
Iteration:  4486charge 0 multiplicity 1
 C         0.200683         0.621965         0.281810
 C         1.672859         0.123319         0.073039
 C         2.134667        -0.726617         1.309068
 C         3.540870        -1.292530         1.022192
 C         4.142167        -0.375321        -0.173209
 O         3.955725         1.107123         0.152855
 C         2.691474         1.026361        -0.627774
 C         3.057178        -0.214640        -1.317239
 O         1.877536        -0.925229        -0.899144
 H         0.060410         1.610956         0.838770
 H        -0.267255         0.754238        -0.719969
 H        -0.368016        -0.078109         0.896632
 H         2.265164        -0.064615         2.246682
 H         1.408661        -1.510565         1.357707
 H         4.153407        -1.168796         2.026540
 H         3.661630        -2.346547         0.738825
 H         5.173955        -0.505689        -0.493562
 H         2.258380         1.951994        -1.038120
 H         3.064795        -0.275265        -2.398721
