19
Iteration:  4440
 C         0.260231         0.604232         0.185326
 C         1.589554         0.018885         0.145668
 C         2.222011        -0.631160         1.336066
 C         3.627246        -1.250705         1.025558
 C         4.161800        -0.401736        -0.099421
 O         3.899181         1.058227         0.155061
 C         2.672984         1.001392        -0.508884
 C         3.003284        -0.213053        -1.319731
 O         1.756577        -0.899992        -1.039771
 H         0.080103         1.270851         1.066033
 H         0.050223         1.176119        -0.719738
 H        -0.529049        -0.181071         0.354895
 H         2.622967         0.330549         1.917837
 H         1.618409        -1.267653         1.992913
 H         4.479531        -1.025161         1.840767
 H         3.687405        -2.322636         0.737973
 H         5.267736        -0.547002        -0.435324
 H         2.424788         1.957591        -1.024657
 H         3.368210        -0.235139        -2.422554
