19
Iteration:  4873
 C         0.212480         0.495170         0.270516
 C         1.625758         0.041663         0.144223
 C         2.203513        -0.610083         1.324964
 C         3.618394        -1.207031         0.990587
 C         4.113099        -0.447230        -0.148406
 O         3.954727         1.104116         0.162115
 C         2.736746         1.016152        -0.541389
 C         2.996992        -0.205050        -1.311634
 O         1.785957        -0.859300        -1.003654
 H         0.204637         1.547953         0.407533
 H        -0.209766         0.279830        -0.687233
 H        -0.407719        -0.113142         0.921910
 H         2.342020         0.144183         2.103622
 H         1.457625        -1.426643         1.640798
 H         4.200623        -1.140461         1.922119
 H         3.524678        -2.251494         0.505557
 H         5.142510        -0.620991        -0.521678
 H         2.387454         2.101085        -0.866458
 H         3.439196        -0.210751        -2.377631
