19
Iteration:  2874
 C         0.199952         0.561930         0.157797
 C         1.628082         0.044799         0.109816
 C         2.174419        -0.703489         1.418851
 C         3.551043        -1.266754         0.968224
 C         4.181506        -0.340856        -0.155299
 O         4.053620         1.109251         0.070851
 C         2.705133         1.118016        -0.442094
 C         2.994735        -0.194081        -1.284207
 O         1.775399        -0.954128        -0.946969
 H        -0.207833         1.290004         0.863865
 H        -0.069671         0.788912        -0.796900
 H        -0.374766        -0.258498         0.499945
 H         2.287304        -0.014483         2.245307
 H         1.350665        -1.518157         1.661889
 H         4.281112        -1.525629         1.864516
 H         3.272519        -2.202855         0.420318
 H         5.242744        -0.331914        -0.576151
 H         2.504761         2.133146        -0.762010
 H         3.251544        -0.247528        -2.350372
