19
Iteration:  1413charge 0 multiplicity 1
 C         0.205249         0.545051         0.130774
 C         1.605580         0.011895         0.133479
 C         2.297304        -0.475008         1.415278
 C         3.652806        -1.225633         1.080595
 C         4.154732        -0.441895        -0.176435
 O         3.929357         1.024516         0.198911
 C         2.637319         0.948446        -0.524975
 C         2.989433        -0.220491        -1.302318
 O         1.762618        -0.886699        -1.096486
 H        -0.110271         1.111197         1.054034
 H         0.012364         1.177182        -0.684056
 H        -0.607860        -0.221694         0.179939
 H         2.564864         0.304756         2.049191
 H         1.701753        -1.073923         2.076094
 H         4.481629        -1.085307         1.854284
 H         3.434676        -2.198703         0.756532
 H         5.219142        -0.496849        -0.416435
 H         2.417060         2.063674        -0.862963
 H         3.318757        -0.272706        -2.396749
