19
Iteration:  3259
 C         0.252140         0.561547         0.246673
 C         1.624236         0.038936         0.164411
 C         2.187892        -0.676597         1.380964
 C         3.606544        -1.297110         1.013030
 C         4.146238        -0.376820        -0.114767
 O         3.969540         1.099015         0.105345
 C         2.646255         1.064262        -0.517772
 C         3.014569        -0.222414        -1.290650
 O         1.807359        -0.850532        -1.089518
 H         0.217094         1.551859         0.865627
 H        -0.114106         1.044780        -0.731508
 H        -0.485126        -0.153330         0.639307
 H         2.092122         0.043651         2.215923
 H         1.497335        -1.576090         1.601440
 H         4.332012        -1.476661         1.843986
 H         3.565167        -2.312333         0.483606
 H         5.277980        -0.617447        -0.191050
 H         2.190210         2.033995        -0.828772
 H         3.280573        -0.384952        -2.409440
