19
Iteration:  2932charge 0 multiplicity 1
 C         0.193880         0.563022         0.377155
 C         1.648887         0.063212         0.054009
 C         2.215494        -0.600353         1.271584
 C         3.552791        -1.181705         0.985072
 C         4.103291        -0.415223        -0.147878
 O         3.916519         1.024397         0.234379
 C         2.657747         1.024630        -0.585731
 C         3.124081        -0.238173        -1.338075
 O         1.817370        -0.879877        -1.018570
 H         0.331570         1.335122         1.027396
 H        -0.249056         0.905726        -0.512751
 H        -0.361713        -0.267529         0.645969
 H         2.370859         0.090587         2.097248
 H         1.530459        -1.379059         1.565113
 H         4.156789        -1.143530         1.860701
 H         3.500134        -2.225854         0.664648
 H         5.124553        -0.608375        -0.549799
 H         2.335219         2.030378        -0.975151
 H         3.579130        -0.406641        -2.341902
