19
Iteration:  4278
 C         0.101697         0.507275         0.294242
 C         1.646126         0.122729         0.126184
 C         2.098095        -0.673661         1.331064
 C         3.528142        -1.280206         1.025915
 C         4.117087        -0.386787        -0.097609
 O         4.103825         1.120786         0.067319
 C         2.728279         1.105290        -0.599140
 C         3.092143        -0.224699        -1.293116
 O         1.834199        -0.938746        -0.978440
 H        -0.072845         1.396218         1.010657
 H        -0.176284         0.967201        -0.646208
 H        -0.447316        -0.323754         0.806334
 H         2.187699        -0.020481         2.268315
 H         1.358547        -1.407689         1.533976
 H         4.273213        -1.351567         1.873708
 H         3.415780        -2.138164         0.428975
 H         5.143576        -0.747491        -0.367464
 H         2.394382         2.109307        -1.043940
 H         3.200629        -0.206520        -2.410543
