19
Iteration:  1244
 C         0.210726         0.425260         0.211555
 C         1.596202         0.010671         0.143671
 C         2.306496        -0.446716         1.494177
 C         3.510608        -1.201977         1.031141
 C         4.075876        -0.390230        -0.146051
 O         4.012035         1.062180         0.153981
 C         2.741327         1.002198        -0.519838
 C         3.032248        -0.234576        -1.391448
 O         1.784295        -0.875771        -1.107615
 H         0.031519         1.051650         1.128357
 H        -0.323849         0.843226        -0.726666
 H        -0.386577        -0.493278         0.324248
 H         2.744241         0.434541         2.054808
 H         1.539348        -0.908740         2.194731
 H         4.200156        -1.512393         1.800498
 H         3.176828        -2.175309         0.494029
 H         5.130449        -0.725782        -0.332767
 H         2.208743         1.960647        -0.814284
 H         3.276306        -0.203561        -2.419330
