19
Iteration:  4297
 C         0.305217         0.551828         0.189849
 C         1.625884         0.015720         0.142314
 C         2.129855        -0.689368         1.369830
 C         3.560586        -1.231195         0.990342
 C         4.131634        -0.344905        -0.132656
 O         3.989904         1.124537         0.049273
 C         2.727391         0.972934        -0.501333
 C         3.044529        -0.223452        -1.233734
 O         1.752212        -0.838323        -1.025958
 H         0.282286         1.457284         0.781671
 H        -0.079129         0.806975        -0.806276
 H        -0.293896        -0.092777         0.898955
 H         2.142846         0.021139         2.229064
 H         1.475834        -1.572130         1.587416
 H         4.056614        -1.230528         2.019767
 H         3.384799        -2.287201         0.704513
 H         5.184630        -0.583055        -0.410452
 H         2.299098         1.941133        -0.705566
 H         3.389605        -0.426757        -2.246312
