19
Iteration:  3879
 C         0.208822         0.578135         0.291488
 C         1.610682         0.102618         0.117129
 C         2.164488        -0.631071         1.266257
 C         3.610501        -1.253782         0.980094
 C         4.151647        -0.368101        -0.150789
 O         3.976606         1.050511         0.212540
 C         2.722653         1.028174        -0.547861
 C         3.027833        -0.227070        -1.308690
 O         1.807093        -0.936531        -1.006182
 H         0.080204         0.960657         1.347441
 H        -0.114882         1.394146        -0.418451
 H        -0.546746        -0.206341         0.204747
 H         2.384267         0.115829         1.959349
 H         1.319100        -1.314577         1.558678
 H         4.255607        -1.071394         1.779098
 H         3.370110        -2.216020         0.540078
 H         5.232813        -0.676698        -0.279850
 H         2.338004         1.959067        -1.022924
 H         3.203401        -0.289852        -2.411918
