19
Iteration:  3908
 C         0.168769         0.489631         0.322248
 C         1.640126         0.096614         0.200585
 C         2.099856        -0.684805         1.402686
 C         3.463818        -1.214984         0.976007
 C         4.104743        -0.381015        -0.101052
 O         4.050475         1.079920         0.055300
 C         2.766861         1.036341        -0.554215
 C         3.089583        -0.216415        -1.333552
 O         1.871752        -0.842249        -1.088033
 H         0.088416         1.231418         1.120499
 H        -0.256039         0.967156        -0.507995
 H        -0.386230        -0.434785         0.657892
 H         2.227707         0.036530         2.311007
 H         1.280506        -1.355098         1.648507
 H         4.243841        -1.432482         1.771916
 H         3.225785        -2.122922         0.395534
 H         5.111140        -0.649564        -0.199251
 H         2.350525         1.985213        -0.937038
 H         3.378099        -0.300295        -2.368377
