19
Iteration:  4430charge 0 multiplicity 1
 C         0.179627         0.533425         0.211376
 C         1.656883         0.113226         0.121590
 C         2.295924        -0.546404         1.359424
 C         3.665170        -1.226168         1.000502
 C         4.098067        -0.427388        -0.185927
 O         3.844398         0.941710         0.222628
 C         2.681023         0.997642        -0.542654
 C         3.047645        -0.244031        -1.329093
 O         1.776311        -0.848868        -1.037245
 H         0.054271         1.273783         1.073485
 H         0.097103         1.142695        -0.710752
 H        -0.594347        -0.284672         0.120582
 H         2.587405         0.324391         2.127898
 H         1.496056        -1.099293         1.848995
 H         4.326866        -0.907223         1.965292
 H         3.774563        -2.323026         0.927836
 H         5.220137        -0.547300        -0.375263
 H         2.346466         2.039722        -0.788774
 H         3.278723        -0.287914        -2.452243
