19
Iteration:  3490charge 0 multiplicity 1
 C         0.179752         0.521163         0.168585
 C         1.638937        -0.022582         0.166670
 C         2.256895        -0.532375         1.400542
 C         3.641480        -1.239256         0.956786
 C         4.153644        -0.425935        -0.208675
 O         3.952718         1.048937         0.224579
 C         2.672302         0.977339        -0.454632
 C         3.013834        -0.186580        -1.341632
 O         1.736524        -0.843591        -1.038178
 H        -0.128599         1.285530         0.860025
 H         0.110658         1.275058        -0.659080
 H        -0.509446        -0.296728         0.036550
 H         2.527429         0.303573         2.024965
 H         1.707608        -1.260370         1.920191
 H         4.263306        -1.231622         1.818797
 H         3.494084        -2.215006         0.603335
 H         5.110153        -0.725378        -0.577028
 H         2.290864         1.900909        -0.620807
 H         3.437614        -0.197399        -2.310759
