19
Iteration:  3718charge 0 multiplicity 1
 C         0.215648         0.557493         0.207398
 C         1.621557         0.094864         0.195167
 C         2.170297        -0.711865         1.290043
 C         3.557426        -1.272356         0.936457
 C         4.157235        -0.376789        -0.149988
 O         3.987006         1.116641         0.096462
 C         2.708973         1.077733        -0.494016
 C         3.066442        -0.209681        -1.237994
 O         1.751722        -0.905497        -0.912034
 H         0.106024         1.287518         0.995891
 H         0.250985         1.244344        -0.682883
 H        -0.479071        -0.216965         0.098136
 H         2.498798        -0.273111         2.279949
 H         1.465829        -1.605439         1.269574
 H         4.225554        -1.471280         1.817638
 H         3.339304        -2.155863         0.286252
 H         5.268490        -0.656268        -0.273054
 H         2.338490         1.912456        -1.046533
 H         3.209945        -0.124679        -2.325556
