19
Iteration:   489charge 0 multiplicity 1
 C         0.113377         0.480041         0.079378
 C         1.581989         0.140639         0.114106
 C         2.258121        -0.527831         1.361374
 C         3.683986        -1.153952         1.022889
 C         4.162839        -0.421160        -0.250619
 O         3.961695         0.972911         0.288155
 C         2.740686         0.998362        -0.532955
 C         3.016811        -0.285846        -1.306153
 O         1.708838        -0.865850        -0.953526
 H        -0.092601         1.326722         0.900378
 H        -0.227055         0.859103        -0.828582
 H        -0.290287        -0.497224         0.187255
 H         2.614978         0.237915         2.038744
 H         1.469527        -1.168151         1.855931
 H         4.399120        -0.734576         1.740071
 H         3.730118        -2.203116         1.129060
 H         5.237029        -0.582385        -0.489956
 H         2.568390         1.976650        -1.018426
 H         3.179911        -0.466397        -2.392408
