19
Iteration:  4353
 C         0.230610         0.583519         0.243549
 C         1.626818         0.052142         0.160743
 C         2.216400        -0.606036         1.335478
 C         3.529857        -1.216536         0.947707
 C         4.120754        -0.331909        -0.152754
 O         3.957186         1.058274         0.231143
 C         2.719146         0.999995        -0.572230
 C         3.052657        -0.261205        -1.351555
 O         1.792440        -0.919418        -1.003658
 H         0.169416         1.393649         1.027368
 H        -0.006373         1.021567        -0.741617
 H        -0.499619        -0.284661         0.330967
 H         2.366022         0.142878         2.196487
 H         1.582257        -1.365909         1.796389
 H         4.205052        -1.156680         1.917050
 H         3.352145        -2.243905         0.620967
 H         5.207436        -0.524488        -0.448124
 H         2.455579         2.007876        -0.941385
 H         3.235389        -0.623928        -2.400026
