19
Iteration:   982
 C         0.210733         0.613799         0.321139
 C         1.638428         0.063731         0.126559
 C         2.072668        -0.767046         1.279069
 C         3.591686        -1.101574         1.036622
 C         4.155213        -0.364768        -0.189317
 O         3.984518         1.075857         0.105844
 C         2.696564         1.037082        -0.529268
 C         2.994225        -0.274669        -1.385375
 O         1.869754        -0.944108        -0.932598
 H         0.331045         1.576450         1.024573
 H        -0.184032         0.886683        -0.696921
 H        -0.575529        -0.087488         0.631219
 H         2.015410        -0.419737         2.328518
 H         1.376470        -1.636999         1.156638
 H         4.295476        -0.590066         1.865097
 H         3.848784        -2.214842         1.149364
 H         5.236473        -0.686321        -0.416646
 H         2.353107         2.040120        -0.984019
 H         3.338235        -0.228719        -2.416613
