19
Iteration:  4858charge 0 multiplicity 1
 C         0.145592         0.509242         0.269337
 C         1.607738         0.133572         0.139104
 C         2.145076        -0.624989         1.393118
 C         3.462598        -1.218099         0.893374
 C         4.183985        -0.354361        -0.245036
 O         4.023483         1.106172         0.123585
 C         2.683488         1.042670        -0.485060
 C         3.103112        -0.212714        -1.285951
 O         1.900109        -0.989889        -0.958036
 H         0.048830         1.518252         0.749288
 H        -0.426979         0.632387        -0.704116
 H        -0.220888        -0.099596         1.097209
 H         2.115527        -0.022664         2.322245
 H         1.422049        -1.422209         1.624890
 H         4.222221        -1.335262         1.626514
 H         3.308386        -2.211980         0.616639
 H         5.228752        -0.682970        -0.433291
 H         2.326595         1.893770        -1.015614
 H         3.243421        -0.204616        -2.352232
