19
Iteration:  2182
 C         0.168669         0.481321         0.347456
 C         1.598448         0.089900         0.095620
 C         2.151963        -0.603156         1.322487
 C         3.557025        -1.173955         0.938825
 C         4.195814        -0.366490        -0.228269
 O         4.005914         1.018065         0.156869
 C         2.659492         1.048995        -0.540771
 C         3.048187        -0.224761        -1.341883
 O         1.836871        -0.896667        -0.980021
 H         0.224040         1.320689         1.000171
 H        -0.257484         0.941668        -0.553205
 H        -0.423661        -0.338782         0.770545
 H         2.338333        -0.016629         2.201666
 H         1.530780        -1.464459         1.730007
 H         4.164428        -0.889673         1.838539
 H         3.521825        -2.324938         0.989731
 H         5.280036        -0.615005        -0.428943
 H         2.207191         1.991014        -0.799288
 H         3.393021        -0.340300        -2.379163
