19
Iteration:  1007charge 0 multiplicity 1
 C         0.267654         0.651168         0.381712
 C         1.624821         0.023113         0.096294
 C         2.072922        -0.759675         1.316934
 C         3.581153        -1.096993         1.087680
 C         4.099839        -0.307354        -0.171230
 O         3.989914         1.113263         0.083974
 C         2.677390         0.998288        -0.604939
 C         3.065705        -0.308171        -1.311720
 O         1.840783        -0.959852        -1.029793
 H         0.372663         1.098373         1.335298
 H        -0.104059         1.385483        -0.421686
 H        -0.561210        -0.121760         0.328758
 H         1.903189        -0.325595         2.370249
 H         1.498450        -1.693122         1.268635
 H         4.395150        -0.821003         1.883945
 H         3.644079        -2.168109         0.994246
 H         5.109095        -0.555315        -0.484959
 H         2.239573         1.946725        -1.073361
 H         3.555642        -0.376821        -2.282231
