19
Iteration:  1158charge 0 multiplicity 1
 C         0.265738         0.725625         0.328148
 C         1.622330        -0.043679         0.096502
 C         2.070546        -0.748274         1.362739
 C         3.586425        -1.194222         1.092349
 C         4.147201        -0.283102        -0.144397
 O         3.928318         1.140153         0.093613
 C         2.679191         1.015526        -0.586220
 C         3.059189        -0.296622        -1.355989
 O         1.838266        -1.018360        -1.057403
 H         0.508719         1.409630         1.158513
 H         0.016793         1.391141        -0.530773
 H        -0.455288         0.091034         0.759563
 H         2.059746        -0.232690         2.281918
 H         1.536709        -1.630184         1.629752
 H         4.259780        -0.873213         1.901230
 H         3.749549        -2.172589         0.725420
 H         5.230679        -0.479437        -0.347296
 H         2.305810         2.046835        -0.994446
 H         3.367573        -0.380390        -2.360665
