19
Iteration:  4785
 C         0.122771         0.525517         0.271194
 C         1.544310         0.050967         0.059522
 C         2.203951        -0.566656         1.382752
 C         3.627903        -1.168245         1.013986
 C         4.152905        -0.418304        -0.219183
 O         4.016220         1.043603         0.139756
 C         2.712434         1.033406        -0.554680
 C         3.043287        -0.229416        -1.306880
 O         1.799919        -0.902668        -0.990897
 H        -0.055545         0.610797         1.313826
 H        -0.145693         1.467238        -0.199487
 H        -0.556631        -0.320030         0.079204
 H         2.319614         0.080773         2.234777
 H         1.554522        -1.442167         1.795607
 H         4.304862        -0.944307         1.890651
 H         3.566480        -2.355792         1.099014
 H         5.158494        -0.756067        -0.584255
 H         2.497452         2.112727        -1.050707
 H         3.424707        -0.206754        -2.398758
