19
Iteration:  4381charge 0 multiplicity 1
 C         0.129993         0.449433         0.259681
 C         1.595648         0.089054         0.132275
 C         2.159383        -0.596269         1.435213
 C         3.469926        -1.308857         1.030808
 C         4.133336        -0.413821        -0.096479
 O         4.121726         1.124533        -0.037085
 C         2.641826         1.047577        -0.509347
 C         3.140405        -0.187657        -1.269741
 O         1.840399        -0.810436        -1.023266
 H         0.001388         0.993804         1.144865
 H        -0.230625         0.994282        -0.617478
 H        -0.382986        -0.472874         0.170430
 H         2.365789         0.139920         2.144233
 H         1.479918        -1.324885         1.951209
 H         4.136517        -1.609636         1.733226
 H         3.113688        -2.252798         0.521442
 H         5.133516        -0.678454        -0.385052
 H         2.412049         2.002021        -0.942465
 H         3.354728        -0.532317        -2.219887
