19
Iteration:  3224charge 0 multiplicity 1
 C         0.126672         0.574947         0.155669
 C         1.597660         0.085055         0.124995
 C         2.180092        -0.648005         1.322534
 C         3.633634        -1.221963         0.919487
 C         4.150659        -0.419011        -0.252822
 O         4.025443         1.064473         0.186709
 C         2.687919         1.120285        -0.443358
 C         2.981950        -0.239405        -1.264997
 O         1.848931        -0.905034        -0.895555
 H         0.142087         1.367562         1.039517
 H        -0.087267         0.913499        -0.861851
 H        -0.584947        -0.258257         0.375654
 H         2.131394        -0.162518         2.276780
 H         1.417211        -1.543745         1.371595
 H         4.410623        -1.196019         1.729124
 H         3.487890        -2.252073         0.543687
 H         5.224354        -0.798691        -0.426113
 H         2.411218         2.084970        -0.750469
 H         3.174894        -0.495576        -2.361483
