19
Iteration:   957
 C         0.173838         0.571700         0.161207
 C         1.601573         0.005961         0.138813
 C         2.266845        -0.676020         1.404729
 C         3.707582        -1.139780         1.031982
 C         4.168537        -0.413456        -0.118600
 O         3.952889         1.089434         0.136864
 C         2.690485         1.005452        -0.472050
 C         3.006355        -0.287428        -1.264853
 O         1.665258        -0.822802        -1.111480
 H         0.125027         1.639300         0.641855
 H        -0.196335         0.572619        -0.852933
 H        -0.474258        -0.103355         0.745544
 H         2.470175         0.070394         2.138835
 H         1.653386        -1.489742         1.835695
 H         4.404226        -1.153063         1.829058
 H         3.737848        -2.260648         0.716035
 H         5.156273        -0.763536        -0.491707
 H         2.364871         1.867632        -0.966221
 H         3.495412        -0.211815        -2.250858
