19
Iteration:  2357charge 0 multiplicity 1
 C         0.220913         0.585878         0.250526
 C         1.587124        -0.081661         0.147930
 C         2.259561        -0.697380         1.388251
 C         3.653510        -1.228757         0.990459
 C         4.114143        -0.360000        -0.206740
 O         3.886834         1.091509         0.202835
 C         2.731217         1.022238        -0.546410
 C         3.081502        -0.235094        -1.310940
 O         1.725439        -0.836847        -1.048742
 H         0.275858         1.285410         1.062378
 H         0.104816         1.071286        -0.698739
 H        -0.759115         0.023453         0.373145
 H         2.323712         0.139973         2.037568
 H         1.536278        -1.461034         1.819203
 H         4.334581        -1.049594         1.827749
 H         3.830866        -2.257785         0.717146
 H         5.191286        -0.318578        -0.524918
 H         2.331113         1.980990        -0.908203
 H         3.270157        -0.327018        -2.399377
