19
Iteration:  2787charge 0 multiplicity 1
 C         0.185972         0.516852         0.305563
 C         1.631534         0.125614         0.072956
 C         2.181976        -0.621242         1.393428
 C         3.541224        -1.249776         1.021316
 C         4.131310        -0.342630        -0.160732
 O         3.970683         1.042502         0.150687
 C         2.709857         1.015745        -0.557871
 C         3.032053        -0.207719        -1.381255
 O         1.863694        -0.882087        -0.998222
 H         0.187376         1.070286         1.277192
 H        -0.295651         1.173441        -0.467899
 H        -0.425294        -0.356522         0.370438
 H         2.162741        -0.028912         2.262069
 H         1.386988        -1.444295         1.379044
 H         4.321567        -1.220886         1.843284
 H         3.392806        -2.251782         0.599253
 H         5.211950        -0.797430        -0.262979
 H         2.470628         1.989595        -0.991914
 H         3.289816        -0.310391        -2.442258
