19
Iteration:  2217
 C         0.221876         0.570088         0.327815
 C         1.640490         0.041433         0.163507
 C         2.194825        -0.735814         1.362597
 C         3.600667        -1.287772         1.022680
 C         4.195478        -0.296544        -0.088004
 O         3.934947         1.166667         0.098425
 C         2.656982         1.068885        -0.641816
 C         3.096411        -0.317259        -1.319613
 O         1.732412        -0.849733        -1.067624
 H         0.288128         1.388618         1.122099
 H        -0.154686         0.847362        -0.603274
 H        -0.561373        -0.154494         0.751737
 H         2.456329        -0.132855         2.277546
 H         1.367666        -1.521050         1.512844
 H         4.115438        -1.234325         2.006011
 H         3.780620        -2.321225         0.516424
 H         5.233118        -0.545024        -0.348535
 H         2.305578         1.953761        -1.047968
 H         3.225767        -0.632477        -2.283359
