19
Iteration:  4815charge 0 multiplicity 1
 C         0.275461         0.576493         0.235077
 C         1.658761         0.053333         0.106269
 C         2.266614        -0.528382         1.384826
 C         3.685885        -1.245127         1.012990
 C         4.112784        -0.366604        -0.185064
 O         3.921720         1.081201         0.235671
 C         2.596064         0.926524        -0.551624
 C         3.032687        -0.284273        -1.314829
 O         1.693802        -0.866933        -1.082946
 H        -0.148762         0.994318         1.142769
 H         0.038715         1.169126        -0.700001
 H        -0.256644        -0.353482         0.178541
 H         2.571849         0.142258         2.191323
 H         1.625851        -1.322834         1.827815
 H         4.302597        -1.204440         1.875043
 H         3.542968        -2.303477         0.920315
 H         5.122889        -0.558068        -0.570887
 H         2.290030         1.907085        -0.964292
 H         3.533418        -0.252445        -2.269907
