19
Iteration:  1927charge 0 multiplicity 1
 C         0.168096         0.519202         0.227943
 C         1.634162         0.062138         0.128208
 C         2.160306        -0.768126         1.353576
 C         3.603255        -1.187424         1.045951
 C         4.150281        -0.346372        -0.063722
 O         4.130108         1.157890         0.021397
 C         2.710318         0.984652        -0.533733
 C         2.953958        -0.219016        -1.267244
 O         1.726571        -0.861620        -1.012136
 H        -0.084701         1.084027         1.130424
 H         0.016265         1.249726        -0.642243
 H        -0.604550        -0.236572         0.276287
 H         2.170343        -0.006719         2.154648
 H         1.547352        -1.633650         1.625921
 H         4.134461        -1.348868         2.032641
 H         3.649616        -2.168663         0.542355
 H         5.159954        -0.474459        -0.431229
 H         2.371612         1.875350        -0.915953
 H         3.388316        -0.388150        -2.287814
