19
Iteration:    80
 C         0.198988         0.650889         0.338785
 C         1.586009         0.084824         0.076289
 C         2.143752        -0.615442         1.346913
 C         3.508162        -1.225407         0.993734
 C         4.057287        -0.295643        -0.024629
 O         3.987836         1.126789         0.052873
 C         2.724603         0.982583        -0.708004
 C         3.140223        -0.351815        -1.268661
 O         1.906313        -0.981687        -0.936491
 H         0.266226         1.367962         1.055080
 H        -0.252124         1.202542        -0.581318
 H        -0.581851        -0.109859         0.662246
 H         2.047087         0.052662         2.170980
 H         1.391357        -1.341055         1.415183
 H         4.196188        -1.500216         1.865809
 H         3.317067        -2.127750         0.531281
 H         5.129835        -0.552112        -0.276960
 H         2.337625         1.814161        -1.161006
 H         3.556945        -0.658491        -2.269486
