19
Iteration:  3368
 C         0.166618         0.537022         0.159147
 C         1.601035         0.052224         0.157911
 C         2.227718        -0.613937         1.372986
 C         3.555675        -1.222254         0.951130
 C         4.116584        -0.394601        -0.297493
 O         3.987486         1.001626         0.244057
 C         2.702828         1.095254        -0.467597
 C         3.013076        -0.189852        -1.294444
 O         1.852091        -0.917695        -0.959082
 H         0.134218         1.165797         1.130249
 H        -0.013123         1.058817        -0.819227
 H        -0.674316        -0.142903         0.172673
 H         2.446929         0.080399         2.139491
 H         1.492254        -1.388679         1.701561
 H         4.170938        -0.848118         1.752766
 H         3.624691        -2.276673         0.718761
 H         5.126309        -0.684757        -0.734883
 H         2.449249         2.051132        -0.863683
 H         3.225372        -0.299734        -2.403068
