19
Iteration:  1626
 C         0.250922         0.592860         0.241758
 C         1.607365        -0.007239         0.108257
 C         2.218057        -0.640713         1.382730
 C         3.575819        -1.231008         1.044328
 C         4.097976        -0.385119        -0.084238
 O         3.925117         1.150487         0.085483
 C         2.667730         1.037126        -0.550022
 C         3.074456        -0.364737        -1.244858
 O         1.805511        -0.876630        -1.087808
 H         0.221167         1.176862         1.149586
 H         0.117151         1.367137        -0.619786
 H        -0.526180        -0.141545         0.331206
 H         2.410105         0.003832         2.184480
 H         1.502848        -1.372261         1.765375
 H         4.117615        -0.932928         1.892320
 H         3.682301        -2.308055         0.620915
 H         5.221736        -0.464022        -0.297299
 H         2.216156         1.811871        -1.208697
 H         3.452636        -0.310205        -2.232282
