19
Iteration:  2437
 C         0.167994         0.459612         0.332975
 C         1.573915        -0.015251         0.128807
 C         2.284566        -0.565673         1.372239
 C         3.639193        -1.221859         1.023968
 C         4.188419        -0.401987        -0.118111
 O         3.971562         1.062107         0.291895
 C         2.734483         1.020633        -0.554038
 C         3.036995        -0.216012        -1.409769
 O         1.658973        -0.824943        -1.211191
 H        -0.136454         1.278095         1.035748
 H        -0.130490         0.870493        -0.568220
 H        -0.336746        -0.459126         0.454678
 H         2.480771         0.491948         1.791100
 H         1.693833        -1.145380         2.201078
 H         4.307707        -1.200497         1.923789
 H         3.548896        -2.259405         0.477953
 H         5.258569        -0.309197        -0.384605
 H         2.370936         1.965973        -0.855057
 H         3.359627        -0.514383        -2.356221
