19
Iteration:  2416charge 0 multiplicity 1
 C         0.155042         0.453733         0.243902
 C         1.634907         0.064521         0.130313
 C         2.246441        -0.597713         1.351772
 C         3.586042        -1.203874         1.007296
 C         4.111842        -0.409961        -0.248709
 O         3.983907         1.016114         0.184600
 C         2.654765         1.051914        -0.484274
 C         3.028531        -0.183920        -1.300379
 O         1.840046        -0.851066        -1.053806
 H         0.187480         1.292027         0.994401
 H        -0.389713         0.879269        -0.594358
 H        -0.366895        -0.348600         0.686039
 H         2.253126         0.148073         2.249150
 H         1.465347        -1.375521         1.668789
 H         4.319357        -1.073029         1.847804
 H         3.552696        -2.325091         0.585018
 H         5.159723        -0.685999        -0.438272
 H         2.327433         2.024764        -0.837657
 H         3.316389        -0.045823        -2.328348
