19
Iteration:  2211charge 0 multiplicity 1
 C         0.200214         0.533797         0.366552
 C         1.641476         0.095455         0.138119
 C         2.168481        -0.729456         1.347725
 C         3.611446        -1.273794         1.007875
 C         4.172982        -0.293054        -0.078128
 O         3.973046         1.182190         0.111456
 C         2.726077         1.050149        -0.667358
 C         3.014431        -0.309454        -1.293822
 O         1.745265        -0.872252        -1.067694
 H         0.286401         1.393064         1.071612
 H        -0.181711         0.876802        -0.676344
 H        -0.465914        -0.201602         0.767960
 H         2.297854        -0.246111         2.336523
 H         1.600675        -1.605358         1.501730
 H         4.202684        -1.397203         1.922963
 H         3.548798        -2.274513         0.680700
 H         5.218273        -0.502868        -0.332560
 H         2.157616         1.989702        -1.124136
 H         3.436566        -0.637513        -2.376749
