19
Iteration:  4886
 C         0.183430         0.526868         0.201397
 C         1.642577         0.045269         0.094712
 C         2.296769        -0.665955         1.392061
 C         3.657635        -1.236115         1.066083
 C         4.108157        -0.298773        -0.175312
 O         3.952362         1.005412         0.207680
 C         2.675077         1.065174        -0.511415
 C         3.041325        -0.273396        -1.341129
 O         1.703195        -0.805469        -1.105340
 H         0.049710         1.573320         0.536311
 H        -0.378429         0.348710        -0.697671
 H        -0.352298         0.016758         1.030063
 H         2.415445         0.192188         2.122833
 H         1.688569        -1.411879         1.904447
 H         4.515960        -1.119497         1.842543
 H         3.591514        -2.398996         0.973975
 H         5.149724        -0.562039        -0.436688
 H         2.304105         2.052606        -0.934453
 H         3.280595        -0.616442        -2.372615
