19
Iteration:   286charge 0 multiplicity 1
 C         0.134817         0.504514         0.119920
 C         1.590469         0.012968         0.165273
 C         2.224788        -0.567217         1.459762
 C         3.612846        -1.192628         1.095696
 C         4.120885        -0.402988        -0.105227
 O         4.045265         1.050497         0.034070
 C         2.661034         1.019671        -0.535558
 C         3.045720        -0.262318        -1.235499
 O         1.782510        -0.824398        -1.088169
 H         0.033686         1.169616         0.913812
 H         0.007715         1.041496        -0.923131
 H        -0.499206        -0.422783         0.309122
 H         2.345402         0.313087         2.161986
 H         1.669268        -1.266294         2.059309
 H         4.176568        -1.147400         2.002195
 H         3.444397        -2.199531         0.782523
 H         5.107333        -0.677858        -0.479619
 H         2.251726         1.873115        -1.040683
 H         3.549254        -0.415331        -2.169254
