19
Iteration:  3117charge 0 multiplicity 1
 C         0.245477         0.547763         0.128299
 C         1.642155         0.004392         0.219591
 C         2.218681        -0.673513         1.390943
 C         3.641185        -1.254837         1.014375
 C         4.077951        -0.423228        -0.194105
 O         3.974322         1.139616         0.119550
 C         2.720729         0.968615        -0.400956
 C         3.010305        -0.214507        -1.348302
 O         1.721083        -0.829753        -1.028403
 H         0.058889         1.371230         0.823370
 H        -0.012364         1.066510        -0.831681
 H        -0.556661        -0.154286         0.269764
 H         2.561919         0.103241         2.103629
 H         1.429511        -1.374270         1.795024
 H         4.387060        -0.932850         1.783316
 H         3.677490        -2.368779         0.764979
 H         5.119865        -0.742927        -0.468573
 H         2.145528         1.887078        -0.671115
 H         3.398901        -0.041862        -2.416694
