19
Iteration:   780charge 0 multiplicity 1
 C         0.136394         0.472462         0.271358
 C         1.627171         0.130625         0.053818
 C         2.288148        -0.434198         1.381549
 C         3.530196        -1.244820         0.961724
 C         4.098202        -0.430991        -0.204987
 O         3.893209         1.014333         0.282930
 C         2.774455         1.031651        -0.499278
 C         3.038072        -0.227074        -1.342408
 O         1.858455        -0.942133        -1.058535
 H         0.139050         1.370317         0.832760
 H        -0.397376         0.544886        -0.727726
 H        -0.367200        -0.337197         0.889465
 H         2.745096         0.290676         2.083445
 H         1.611513        -0.979712         2.009074
 H         4.291390        -1.089386         1.662473
 H         3.276329        -2.229120         0.494731
 H         5.065836        -0.780441        -0.594030
 H         2.353542         1.946067        -0.938682
 H         3.359720        -0.237348        -2.433513
