19
Iteration:  4511
 C         0.207735         0.570380         0.239589
 C         1.617063         0.039480         0.105252
 C         2.248536        -0.586592         1.385957
 C         3.653517        -1.086067         1.010069
 C         4.144830        -0.408894        -0.149504
 O         3.929871         0.952147         0.236105
 C         2.742883         0.975986        -0.534439
 C         3.022203        -0.280794        -1.272077
 O         1.710289        -0.822275        -1.160649
 H         0.031721         1.511127         0.814633
 H        -0.274563         0.608641        -0.805534
 H        -0.428278        -0.173073         0.796845
 H         2.368064         0.191252         2.089999
 H         1.715198        -1.450124         1.927506
 H         4.309912        -1.013402         1.839604
 H         3.650104        -2.173779         0.708855
 H         5.123252        -0.543946        -0.523882
 H         2.375939         1.956530        -0.846057
 H         3.259044        -0.446283        -2.302992
