19
Iteration:  1562charge 0 multiplicity 1
 C         0.155993         0.441314         0.147985
 C         1.624712         0.089275         0.137371
 C         2.175391        -0.607711         1.512714
 C         3.537228        -1.248127         1.049777
 C         4.149029        -0.356065        -0.106510
 O         4.060050         1.110800         0.013369
 C         2.761362         1.047207        -0.519422
 C         2.992041        -0.210032        -1.298306
 O         1.803831        -0.893533        -1.023337
 H        -0.037596         1.181583         0.891404
 H        -0.127957         1.125641        -0.710197
 H        -0.495006        -0.444095         0.220000
 H         2.199179         0.298217         2.158519
 H         1.537408        -1.425847         1.923307
 H         4.246417        -1.472153         1.843153
 H         3.234906        -2.273714         0.606491
 H         5.191983        -0.715703        -0.341529
 H         2.483718         1.975360        -0.852224
 H         3.218053        -0.363613        -2.337463
