19
Iteration:   877charge 0 multiplicity 1
 C         0.154114         0.519440         0.224521
 C         1.617732         0.012902         0.148042
 C         2.278532        -0.609208         1.390100
 C         3.710402        -1.199107         1.089700
 C         4.076232        -0.379186        -0.130882
 O         4.017160         1.080565         0.134329
 C         2.683660         0.971199        -0.556169
 C         2.992209        -0.286509        -1.269954
 O         1.710181        -0.800865        -1.131937
 H        -0.012175         0.881906         1.237647
 H         0.037130         1.389549        -0.595946
 H        -0.613492        -0.348056         0.029255
 H         2.286084         0.098773         2.307614
 H         1.634832        -1.429572         1.701849
 H         4.308402        -0.872210         1.976482
 H         3.564692        -2.310810         0.766844
 H         5.059732        -0.596324        -0.529463
 H         2.460287         1.965425        -1.090340
 H         3.497276        -0.378657        -2.262019
