19
Iteration:   990
 C         0.280758         0.623841         0.334174
 C         1.649419         0.119071         0.169117
 C         2.058352        -0.795117         1.258053
 C         3.532980        -1.048199         1.004829
 C         4.174951        -0.427352        -0.188790
 O         3.925847         1.095576         0.076650
 C         2.697417         1.005053        -0.532308
 C         3.069055        -0.235909        -1.377892
 O         1.892144        -0.980710        -0.916914
 H         0.254644         1.383658         1.223586
 H        -0.179713         1.076896        -0.494590
 H        -0.422464        -0.155047         0.622545
 H         1.836413        -0.409541         2.209258
 H         1.372066        -1.667272         1.260910
 H         3.884966        -0.494715         1.780296
 H         3.849504        -2.135560         0.943970
 H         5.234311        -0.739225        -0.342765
 H         2.361249         1.900736        -0.955981
 H         3.188070        -0.267946        -2.483960
