19
Iteration:   813
 C         0.218745         0.564287         0.262528
 C         1.591833         0.068885         0.125351
 C         2.180130        -0.722478         1.384049
 C         3.541830        -1.250926         0.991213
 C         4.168612        -0.325870        -0.045766
 O         3.983920         1.209808         0.024047
 C         2.756519         0.985570        -0.570613
 C         3.026459        -0.286955        -1.266034
 O         1.787850        -0.885897        -0.996186
 H         0.132377         1.164355         1.165953
 H        -0.090044         1.246732        -0.605731
 H        -0.556546        -0.272906         0.380998
 H         2.358694        -0.056899         2.253150
 H         1.404059        -1.440657         1.548295
 H         4.127401        -1.577011         1.815388
 H         3.627866        -2.275954         0.430872
 H         5.225886        -0.457580        -0.338450
 H         2.241014         1.844918        -1.019251
 H         3.389466        -0.512302        -2.319281
