19
Iteration:  2689
 C         0.148409         0.540529         0.391550
 C         1.609847         0.150224         0.133221
 C         2.138830        -0.611186         1.358020
 C         3.569245        -1.290202         0.907062
 C         4.177553        -0.340148        -0.100012
 O         3.972520         1.111776         0.153166
 C         2.717846         0.993634        -0.603216
 C         3.101674        -0.306353        -1.316638
 O         1.848922        -0.885360        -1.028697
 H        -0.100256         1.183290         1.327596
 H        -0.343470         0.997239        -0.617410
 H        -0.380224        -0.387950         0.670336
 H         2.266272         0.015382         2.161826
 H         1.366686        -1.401569         1.323335
 H         4.115111        -1.327295         1.829225
 H         3.436316        -2.195798         0.356158
 H         5.308766        -0.440619        -0.325056
 H         2.377328         1.816836        -1.230570
 H         3.272099        -0.288344        -2.397394
