19
Iteration:   967charge 0 multiplicity 1
 C         0.184437         0.604990         0.190530
 C         1.572361         0.034721         0.145286
 C         2.220148        -0.741244         1.367094
 C         3.707867        -1.142122         1.093097
 C         4.112285        -0.375394        -0.183216
 O         4.004581         1.067725         0.127585
 C         2.707995         1.032278        -0.541570
 C         3.046866        -0.221486        -1.267873
 O         1.727475        -0.900483        -1.050322
 H         0.203353         1.557674         0.786103
 H        -0.357289         0.757028        -0.728387
 H        -0.502499        -0.050513         0.765948
 H         1.930961        -0.149474         2.204404
 H         1.689562        -1.685132         1.604031
 H         4.256047        -0.876989         1.905975
 H         3.710121        -2.202008         0.735418
 H         5.077854        -0.598540        -0.635266
 H         2.373379         1.958838        -0.875835
 H         3.300772        -0.458711        -2.312540
