19
Iteration:  5000
 C         0.203928         0.480381         0.235540
 C         1.634950         0.048890         0.121283
 C         2.275870        -0.472611         1.439031
 C         3.602143        -1.138990         0.962062
 C         4.102088        -0.425208        -0.216028
 O         3.907162         0.885843         0.206668
 C         2.645968         1.042455        -0.525414
 C         3.008261        -0.172181        -1.399684
 O         1.806951        -0.885321        -1.038055
 H         0.058827         0.444919         1.353387
 H         0.260306         1.587092        -0.161560
 H        -0.432965        -0.331333        -0.205213
 H         2.441027         0.303874         2.212289
 H         1.624490        -1.189246         1.975448
 H         4.328043        -0.767021         1.746449
 H         3.477370        -2.255320         1.026466
 H         5.170886        -0.690532        -0.410437
 H         2.546619         2.002743        -0.911070
 H         3.430878        -0.244166        -2.402901
