19
Iteration:   475
 C         0.133349         0.443176         0.157409
 C         1.633466         0.136112         0.091122
 C         2.246356        -0.355161         1.350662
 C         3.570548        -1.223250         0.953790
 C         4.143664        -0.419314        -0.180752
 O         3.947520         0.942747         0.232639
 C         2.737383         1.041600        -0.544121
 C         3.030010        -0.232301        -1.302030
 O         1.822266        -0.956876        -0.908909
 H        -0.315885         1.156486         0.906129
 H        -0.213644         0.806543        -0.880545
 H        -0.476103        -0.428848         0.420574
 H         2.331534         0.439686         2.058403
 H         1.623187        -1.152138         1.857640
 H         4.280124        -1.138078         1.834100
 H         3.437641        -2.248485         0.618295
 H         5.192799        -0.616946        -0.631858
 H         2.542902         2.076566        -0.919318
 H         3.362220        -0.136365        -2.421878
