19
Iteration:  1044
 C         0.186724         0.516013         0.193450
 C         1.624720         0.081141         0.119074
 C         2.299640        -0.495949         1.422422
 C         3.678018        -1.210845         0.991413
 C         4.149055        -0.362213        -0.169533
 O         3.909403         1.030524         0.228957
 C         2.653901         0.936807        -0.538372
 C         3.086382        -0.319503        -1.289393
 O         1.699406        -0.839515        -1.078684
 H        -0.176622         1.000016         1.112291
 H         0.028337         1.204179        -0.567290
 H        -0.391139        -0.379950         0.170455
 H         2.419471         0.423705         1.966011
 H         1.575056        -1.180744         1.922982
 H         4.254592        -1.151313         1.858411
 H         3.632630        -2.291179         0.699230
 H         5.139045        -0.560267        -0.577254
 H         2.375533         1.800501        -1.033475
 H         3.274571        -0.438419        -2.375230
