19
Iteration:   592charge 0 multiplicity 1
 C         0.242861         0.489788         0.142895
 C         1.606403        -0.050817         0.118318
 C         2.286073        -0.487729         1.458037
 C         3.595069        -1.131959         1.048791
 C         4.094424        -0.369838        -0.162500
 O         3.987952         1.020485         0.231964
 C         2.677906         0.994937        -0.575318
 C         3.039087        -0.259328        -1.285593
 O         1.711568        -0.893523        -1.101629
 H         0.309316         1.487785         0.602436
 H        -0.156271         0.679139        -0.964193
 H        -0.586372        -0.090813         0.689453
 H         2.663784         0.450223         2.093557
 H         1.710533        -1.109422         2.119587
 H         4.361584        -1.147760         1.846329
 H         3.331141        -2.197134         0.587953
 H         5.072179        -0.690116        -0.450505
 H         2.279565         1.967030        -0.883407
 H         3.334037        -0.377674        -2.334131
