19
Iteration:   769charge 0 multiplicity 1
 C         0.117436         0.441958         0.230306
 C         1.636012         0.073695         0.104220
 C         2.271904        -0.419172         1.346229
 C         3.542425        -1.216903         0.967550
 C         4.058814        -0.463857        -0.281900
 O         3.990909         0.935406         0.313086
 C         2.659911         1.097883        -0.521451
 C         3.005886        -0.160905        -1.386718
 O         1.924086        -0.944515        -1.001009
 H         0.099802         1.422579         0.618032
 H        -0.532663         0.588167        -0.685127
 H        -0.407435        -0.224727         0.980663
 H         2.500243         0.565117         1.815270
 H         1.615548        -1.013566         1.941247
 H         4.209789        -1.188775         1.772363
 H         3.400455        -2.320234         1.074715
 H         5.102133        -0.706909        -0.541342
 H         2.659331         2.177925        -0.637529
 H         3.224291        -0.166106        -2.503365
