19
Iteration:  2065
 C         0.164422         0.542171         0.286172
 C         1.597338         0.047332         0.051562
 C         2.290891        -0.661210         1.378308
 C         3.752498        -1.132025         1.109187
 C         4.084805        -0.420980        -0.125282
 O         3.901302         1.047460         0.164140
 C         2.690551         0.928149        -0.542331
 C         3.010615        -0.293691        -1.291334
 O         1.743460        -0.784004        -1.164983
 H         0.232801         1.423374         1.045674
 H        -0.014971         1.040397        -0.581781
 H        -0.573617        -0.248528         0.678775
 H         2.120407         0.186880         2.102044
 H         1.620494        -1.480619         1.689340
 H         4.492111        -0.998329         1.852868
 H         3.907423        -2.181598         0.913132
 H         5.034186        -0.418702        -0.604649
 H         2.350025         1.912275        -0.931958
 H         3.432419        -0.341521        -2.223720
