19
Iteration:  2251charge 0 multiplicity 1
 C         0.219276         0.589208         0.221223
 C         1.580726         0.018984         0.165853
 C         2.294784        -0.576131         1.411008
 C         3.593515        -1.155912         0.947671
 C         4.144729        -0.367962        -0.283800
 O         3.955527         1.030872         0.287137
 C         2.628330         1.056433        -0.477913
 C         2.972314        -0.211027        -1.371546
 O         1.840907        -1.060333        -1.071644
 H         0.231032         1.516996         0.957264
 H        -0.010200         1.202750        -0.619195
 H        -0.604416        -0.121829         0.530554
 H         2.165060         0.193459         2.259661
 H         1.462551        -1.257289         1.728423
 H         4.344633        -1.015322         1.761564
 H         3.635365        -2.260323         0.666970
 H         5.139514        -0.597052        -0.644819
 H         2.509568         2.054193        -0.739224
 H         3.196766        -0.269700        -2.371326
