19
Iteration:  4498
 C         0.191588         0.553142         0.257109
 C         1.614830         0.098277         0.100663
 C         2.234172        -0.620344         1.305008
 C         3.652965        -1.257434         1.049772
 C         4.100213        -0.395961        -0.175124
 O         3.929305         1.067047         0.219672
 C         2.727418         1.080762        -0.558701
 C         3.041286        -0.286320        -1.344937
 O         1.754938        -0.892608        -1.013236
 H         0.345448         1.582315         0.708206
 H        -0.293057         0.710702        -0.755267
 H        -0.455731        -0.088244         0.852312
 H         2.131127        -0.047070         2.260606
 H         1.488183        -1.403905         1.445509
 H         4.446638        -1.033406         1.826101
 H         3.545716        -2.342827         0.859658
 H         5.077154        -0.615463        -0.495007
 H         2.524120         2.068596        -0.992430
 H         3.506352        -0.458958        -2.289806
