19
Iteration:  1134
 C         0.271528         0.680284         0.308114
 C         1.585987         0.034639         0.043706
 C         2.201069        -0.578439         1.242289
 C         3.650638        -1.107986         1.074148
 C         4.140474        -0.429538        -0.232564
 O         3.817399         1.015260         0.252267
 C         2.652713         0.959084        -0.545609
 C         3.082911        -0.302594        -1.302935
 O         1.813637        -0.954710        -1.044065
 H         0.244907         1.535301         1.089430
 H        -0.135535         1.108113        -0.611753
 H        -0.259525        -0.125818         0.823413
 H         2.336041        -0.118049         2.218754
 H         1.604357        -1.472824         1.573680
 H         4.357509        -0.635951         1.723937
 H         3.737970        -2.233789         0.970337
 H         5.250025        -0.554902        -0.475344
 H         2.334746         1.936289        -1.007715
 H         3.417766        -0.251793        -2.357103
