19
Iteration:  2861charge 0 multiplicity 1
 C         0.199838         0.511773         0.160148
 C         1.653794         0.110462         0.211899
 C         2.157086        -0.653780         1.365320
 C         3.525876        -1.263058         0.922776
 C         4.122721        -0.333598        -0.206905
 O         4.041960         1.131274         0.173430
 C         2.734059         1.029774        -0.548839
 C         3.015218        -0.151408        -1.351944
 O         1.805657        -0.956460        -0.875761
 H         0.186892         1.294601         1.000415
 H        -0.113362         0.986006        -0.812362
 H        -0.410643        -0.420221         0.259646
 H         2.209322        -0.063020         2.331253
 H         1.419564        -1.551082         1.567186
 H         4.266939        -1.399506         1.855728
 H         3.459333        -2.277709         0.437834
 H         5.050638        -0.868582        -0.419859
 H         2.237868         1.940040        -0.869753
 H         3.249749        -0.204713        -2.409185
