19
Iteration:  1906charge 0 multiplicity 1
 C         0.195915         0.602375         0.178660
 C         1.590120         0.070574         0.198956
 C         2.197904        -0.702324         1.387392
 C         3.649142        -1.198695         1.010635
 C         4.179107        -0.383396        -0.209101
 O         3.937818         1.067087         0.122693
 C         2.707180         1.025309        -0.519605
 C         3.080705        -0.265360        -1.286152
 O         1.729343        -0.874842        -0.999032
 H         0.008572         1.305609         1.002262
 H         0.115125         1.164994        -0.835221
 H        -0.590543        -0.143393         0.277781
 H         2.165590        -0.247357         2.399351
 H         1.536518        -1.630251         1.419971
 H         4.394210        -0.983720         1.809890
 H         3.689360        -2.259159         0.693878
 H         5.233505        -0.320941        -0.362668
 H         2.297816         1.917652        -0.808228
 H         3.288889        -0.432660        -2.376463
