19
Iteration:  1133charge 0 multiplicity 1
 C         0.265307         0.677613         0.300838
 C         1.594157         0.039900         0.044268
 C         2.201711        -0.574763         1.242368
 C         3.655851        -1.120341         1.074835
 C         4.144066        -0.432476        -0.231721
 O         3.816004         1.017472         0.249332
 C         2.650583         0.966217        -0.545424
 C         3.085594        -0.302343        -1.296030
 O         1.805870        -0.950452        -1.043959
 H         0.256348         1.546316         1.093484
 H        -0.159689         1.078683        -0.614231
 H        -0.261080        -0.160475         0.813220
 H         2.340137        -0.099314         2.232344
 H         1.607958        -1.476046         1.608772
 H         4.331717        -0.629370         1.713575
 H         3.759487        -2.262725         0.972162
 H         5.244786        -0.550190        -0.476283
 H         2.358706         1.911974        -0.996363
 H         3.412928        -0.255385        -2.377803
