19
Iteration:  4809
 C         0.237654         0.560959         0.236009
 C         1.677921         0.036345         0.157450
 C         2.288270        -0.541375         1.370760
 C         3.695969        -1.192453         1.031006
 C         4.112088        -0.349196        -0.145363
 O         3.897959         1.014025         0.248644
 C         2.662309         0.957605        -0.598219
 C         3.028682        -0.279059        -1.361456
 O         1.690585        -0.849473        -1.092449
 H        -0.218525         0.969849         1.159748
 H         0.137989         1.278049        -0.554344
 H        -0.396739        -0.373068         0.101434
 H         2.416546         0.260450         2.121233
 H         1.510285        -1.192426         1.838902
 H         4.463415        -1.117548         1.885111
 H         3.645723        -2.355659         0.839496
 H         5.051029        -0.704006        -0.617645
 H         2.084183         1.926468        -0.813137
 H         3.467840        -0.410159        -2.415437
