19
Iteration:  3094charge 0 multiplicity 1
 C         0.221345         0.597996         0.170386
 C         1.569077         0.026457         0.138510
 C         2.289010        -0.634912         1.433073
 C         3.703600        -1.173918         1.002375
 C         4.144899        -0.366814        -0.190435
 O         3.916349         0.957939         0.242044
 C         2.661286         1.050597        -0.498432
 C         2.983162        -0.227075        -1.329057
 O         1.740845        -0.895685        -1.094336
 H         0.298419         1.505258         0.821285
 H        -0.071664         1.078988        -0.758086
 H        -0.597010         0.006665         0.446225
 H         2.413701         0.139984         2.174934
 H         1.767930        -1.542934         1.869603
 H         4.451992        -1.116412         1.843859
 H         3.561900        -2.211687         0.607851
 H         5.179908        -0.678098        -0.482451
 H         2.286155         1.976485        -0.874906
 H         3.335936        -0.199850        -2.399988
