19
Iteration:  4065charge 0 multiplicity 1
 C         0.116178         0.538125         0.205638
 C         1.596131         0.058656         0.147053
 C         2.277945        -0.563765         1.409004
 C         3.600893        -1.269518         0.995507
 C         4.145760        -0.399795        -0.163003
 O         3.987431         1.000245         0.091136
 C         2.641731         1.030104        -0.431657
 C         3.095351        -0.208867        -1.258873
 O         1.795425        -0.874501        -1.079791
 H        -0.167881         1.090305         1.162095
 H         0.112931         1.240500        -0.708885
 H        -0.667657        -0.220742         0.082359
 H         2.466046         0.370642         1.954941
 H         1.563336        -1.292598         1.952589
 H         4.323862        -1.211585         1.787364
 H         3.277182        -2.333764         0.711713
 H         5.189642        -0.522809        -0.557320
 H         2.347960         2.049165        -0.748760
 H         3.359565        -0.177158        -2.335354
