19
Iteration:  4354
 C         0.226413         0.578719         0.241887
 C         1.630840         0.047344         0.171019
 C         2.215670        -0.606977         1.344201
 C         3.517884        -1.218266         0.950010
 C         4.123061        -0.330532        -0.146599
 O         3.961383         1.065034         0.225830
 C         2.731464         0.998372        -0.582845
 C         3.050023        -0.258234        -1.349555
 O         1.790836        -0.919726        -1.009544
 H         0.171263         1.391253         1.043677
 H        -0.025790         1.018385        -0.738069
 H        -0.498529        -0.277586         0.319565
 H         2.366564         0.127103         2.205808
 H         1.604662        -1.370965         1.795575
 H         4.199085        -1.178156         1.893884
 H         3.341091        -2.229307         0.624863
 H         5.188119        -0.517408        -0.464297
 H         2.451257         2.014481        -0.944934
 H         3.238999        -0.600098        -2.404951
