19
Iteration:   759charge 0 multiplicity 1
 C         0.154642         0.464642         0.211465
 C         1.532266         0.010891         0.087261
 C         2.230540        -0.447786         1.392987
 C         3.543398        -1.193253         0.992107
 C         4.131781        -0.441137        -0.256531
 O         4.031593         0.889104         0.202848
 C         2.700715         1.082760        -0.485551
 C         3.058399        -0.090332        -1.354573
 O         1.842548        -0.906473        -0.959921
 H         0.035113         1.425924         0.642593
 H        -0.213856         0.264561        -0.791188
 H        -0.411584        -0.223262         0.878146
 H         2.391287         0.378469         2.108325
 H         1.506918        -1.079962         1.915306
 H         4.327123        -0.916945         1.653795
 H         3.291311        -2.235323         0.731721
 H         5.203679        -0.631650        -0.557206
 H         2.313025         2.076858        -0.737973
 H         3.369698        -0.188318        -2.447294
