19
Iteration:  2273charge 0 multiplicity 1
 C         0.177748         0.503067         0.133413
 C         1.615592         0.015669         0.171009
 C         2.273708        -0.540008         1.386405
 C         3.591057        -1.216844         0.914820
 C         4.131432        -0.440798        -0.235048
 O         3.957021         1.019702         0.176943
 C         2.658671         1.034291        -0.490128
 C         3.007677        -0.167755        -1.301248
 O         1.848854        -0.853337        -0.917844
 H        -0.015005         1.246935         0.972754
 H        -0.130106         1.006006        -0.731269
 H        -0.446278        -0.384485         0.355781
 H         2.555701         0.126274         2.245102
 H         1.598698        -1.291526         1.844553
 H         4.228374        -1.208218         1.828478
 H         3.509715        -2.252211         0.486590
 H         5.084460        -0.665582        -0.683713
 H         2.201215         1.928766        -0.760212
 H         3.068551        -0.190748        -2.323869
