19
Iteration:  1177charge 0 multiplicity 1
 C         0.213349         0.623532         0.244396
 C         1.685761         0.039959         0.174122
 C         2.171555        -0.773987         1.311829
 C         3.589939        -1.224540         1.027214
 C         4.121150        -0.377033        -0.059756
 O         3.977988         1.227888        -0.029068
 C         2.643376         0.956664        -0.567528
 C         3.077580        -0.271416        -1.202695
 O         1.780945        -0.870274        -0.974976
 H         0.308450         1.451252         1.076381
 H         0.112952         1.137590        -0.734287
 H        -0.568165        -0.160345         0.441943
 H         1.955067        -0.135747         2.260843
 H         1.506148        -1.682950         1.574149
 H         4.133128        -1.209186         1.942526
 H         3.536187        -2.264580         0.465389
 H         5.165512        -0.655086        -0.392181
 H         2.205666         1.769841        -1.143367
 H         3.487545        -0.416043        -2.231322
