19
Iteration:  4666charge 0 multiplicity 1
 C         0.166332         0.539101         0.259786
 C         1.629257         0.053602         0.143641
 C         2.161008        -0.650893         1.354060
 C         3.594259        -1.277163         1.012833
 C         4.202517        -0.312143        -0.094062
 O         4.033495         1.133435         0.087468
 C         2.715523         0.956247        -0.584877
 C         3.044507        -0.275562        -1.269169
 O         1.744177        -0.809517        -0.977465
 H        -0.032192         1.602081         0.544856
 H        -0.295931         0.566777        -0.769600
 H        -0.407788        -0.218161         0.967969
 H         2.069915        -0.006408         2.202552
 H         1.497339        -1.578239         1.465149
 H         4.257666        -1.562712         1.841105
 H         3.341248        -2.111291         0.282153
 H         5.235405        -0.567673        -0.430498
 H         2.517432         1.993334        -0.977667
 H         3.234544        -0.463170        -2.420657
