19
Iteration:  3543
 C         0.177834         0.517393         0.342082
 C         1.651869         0.102743         0.090688
 C         2.162172        -0.662968         1.342650
 C         3.575695        -1.271985         0.926278
 C         4.167110        -0.340574        -0.116908
 O         3.957627         1.088263         0.128174
 C         2.738104         1.023535        -0.539917
 C         3.088745        -0.291648        -1.253525
 O         1.725530        -0.792757        -1.072564
 H         0.055369         1.077493         1.347452
 H        -0.272982         1.081879        -0.545769
 H        -0.271969        -0.459220         0.400679
 H         2.233230         0.004343         2.175141
 H         1.474958        -1.472777         1.673133
 H         4.205086        -1.251204         1.810865
 H         3.620255        -2.301898         0.575677
 H         5.293352        -0.509647        -0.181487
 H         2.549094         1.889942        -1.086710
 H         3.458028        -0.469410        -2.232437
