19
Iteration:  1415charge 0 multiplicity 1
 C         0.201565         0.541947         0.130067
 C         1.594789         0.035289         0.127166
 C         2.289915        -0.500172         1.406162
 C         3.659183        -1.202808         1.075501
 C         4.161274        -0.427388        -0.164026
 O         3.926287         1.014193         0.199485
 C         2.651317         0.950217        -0.520032
 C         2.960688        -0.228552        -1.307329
 O         1.774583        -0.894223        -1.084582
 H        -0.102019         1.160141         1.063976
 H         0.016385         1.217484        -0.664944
 H        -0.570370        -0.248156         0.168109
 H         2.593361         0.318927         2.050785
 H         1.651301        -1.115587         2.044450
 H         4.483108        -1.044128         1.815236
 H         3.435945        -2.262227         0.784595
 H         5.223199        -0.542534        -0.483024
 H         2.486246         2.060493        -0.851010
 H         3.356082        -0.265303        -2.410412
