19
Iteration:  3713
 C         0.232317         0.539195         0.198142
 C         1.633335         0.080274         0.206771
 C         2.201847        -0.698155         1.308585
 C         3.535663        -1.308743         0.906965
 C         4.159207        -0.331096        -0.113733
 O         4.009455         1.128905         0.087040
 C         2.727610         1.039136        -0.496289
 C         3.045282        -0.215603        -1.249411
 O         1.716562        -0.861249        -0.921997
 H         0.014837         1.151219         1.120793
 H         0.270766         1.125633        -0.699192
 H        -0.648346        -0.190401         0.024368
 H         2.238204        -0.255328         2.290995
 H         1.444495        -1.468418         1.425659
 H         4.207826        -1.405831         1.740467
 H         3.563560        -2.254071         0.310627
 H         5.148019        -0.641477        -0.280743
 H         2.317661         1.915697        -1.085064
 H         3.420066        -0.285222        -2.287142
