19
Iteration:  1097
 C         0.128074         0.421722         0.181857
 C         1.630026         0.076669         0.204930
 C         2.227304        -0.569870         1.479730
 C         3.501645        -1.184560         0.934115
 C         4.143368        -0.394877        -0.135354
 O         4.068585         1.109196         0.040766
 C         2.759969         1.042594        -0.513914
 C         3.066478        -0.244006        -1.254475
 O         1.759866        -0.862793        -1.010209
 H        -0.061940         1.320944         0.761657
 H        -0.204130         0.590126        -0.873588
 H        -0.485066        -0.470870         0.581629
 H         2.230675         0.314678         2.134901
 H         1.622294        -1.423181         1.860084
 H         4.084104        -1.529863         1.786506
 H         3.221137        -2.162301         0.506851
 H         5.113951        -0.710577        -0.415266
 H         2.452879         1.950559        -0.936797
 H         3.311397        -0.358751        -2.329409
