19
Iteration:  2679
 C         0.147244         0.532118         0.353725
 C         1.618833         0.147670         0.121884
 C         2.188295        -0.720829         1.339469
 C         3.500694        -1.293746         0.943437
 C         4.153888        -0.290871        -0.121932
 O         3.993303         1.158748         0.088644
 C         2.757518         1.001534        -0.629859
 C         3.107952        -0.282118        -1.244181
 O         1.794262        -0.847987        -1.008060
 H         0.014842         1.161425         1.289005
 H        -0.445584         1.040603        -0.573461
 H        -0.291888        -0.450629         0.415179
 H         2.213771        -0.179836         2.253703
 H         1.551972        -1.514479         1.740011
 H         4.160498        -1.454391         1.748700
 H         3.372790        -2.303964         0.611419
 H         5.209331        -0.557836        -0.334888
 H         2.337450         1.913368        -1.065903
 H         3.601902        -0.512603        -2.200410
