19
Iteration:  1589charge 0 multiplicity 1
 C         0.164367         0.499744         0.229493
 C         1.635982         0.182974         0.095309
 C         2.201132        -0.544982         1.321632
 C         3.575581        -1.134573         0.979625
 C         4.176773        -0.398408        -0.199746
 O         3.932732         0.986058         0.233341
 C         2.708499         0.969938        -0.541787
 C         3.034077        -0.280642        -1.308325
 O         1.816033        -0.937304        -1.001847
 H         0.091654         1.102429         1.212876
 H        -0.112616         1.284961        -0.439783
 H        -0.575424        -0.323369         0.133585
 H         2.206192         0.245369         2.125618
 H         1.525390        -1.397474         1.571613
 H         4.325258        -0.740270         1.779698
 H         3.663698        -2.192858         1.125692
 H         5.182805        -0.667464        -0.458219
 H         2.492554         2.078783        -0.945658
 H         3.279456        -0.476219        -2.397038
