19
Iteration:  4615charge 0 multiplicity 1
 C         0.286290         0.541611         0.228930
 C         1.621988        -0.000895         0.143667
 C         2.200881        -0.560081         1.385779
 C         3.571916        -1.097992         1.070881
 C         4.157771        -0.498484        -0.264111
 O         3.919078         1.043697         0.201679
 C         2.685872         0.956983        -0.466212
 C         3.012319        -0.193568        -1.398725
 O         1.773907        -0.913006        -1.088718
 H         0.299837         1.107505         1.187777
 H         0.097443         1.367730        -0.406927
 H        -0.560569        -0.145565         0.213416
 H         2.339987         0.336193         2.109819
 H         1.630323        -1.319974         1.896967
 H         4.327296        -0.953308         1.890712
 H         3.433916        -2.130284         0.876654
 H         5.299988        -0.657419        -0.434327
 H         2.417966         1.974732        -0.749762
 H         3.194086        -0.220928        -2.472146
