19
Iteration:  2886
 C         0.137935         0.527494         0.172169
 C         1.588142         0.040589         0.217670
 C         2.214268        -0.646376         1.378179
 C         3.583736        -1.229797         0.930088
 C         4.128512        -0.353487        -0.158242
 O         4.012411         1.074780         0.079357
 C         2.695090         1.037045        -0.429587
 C         3.038148        -0.260231        -1.242940
 O         1.815490        -0.829386        -1.039197
 H         0.233587         1.449262         0.699117
 H        -0.064264         0.785318        -0.788717
 H        -0.587824        -0.166550         0.453456
 H         2.322214         0.080242         2.161715
 H         1.641812        -1.523539         1.834033
 H         4.306019        -1.334587         1.800589
 H         3.470685        -2.256014         0.505552
 H         5.190468        -0.735721        -0.347382
 H         2.243252         1.973928        -0.754530
 H         3.384524        -0.349040        -2.287552
