19
Iteration:  1331charge 0 multiplicity 1
 C         0.241569         0.579249         0.216132
 C         1.619428        -0.019273         0.132160
 C         2.210035        -0.672169         1.392205
 C         3.697563        -1.124786         1.203542
 C         4.160038        -0.397464        -0.132484
 O         3.985576         1.069540         0.105412
 C         2.677037         0.956777        -0.518049
 C         2.973892        -0.195354        -1.357314
 O         1.662704        -0.880716        -1.156171
 H         0.280304         1.489413         0.812724
 H        -0.036359         0.855069        -0.846219
 H        -0.487206        -0.159679         0.513928
 H         2.314303         0.168084         2.145482
 H         1.572147        -1.556406         1.659446
 H         4.313446        -1.028524         2.044677
 H         3.831274        -2.235895         1.070554
 H         5.220637        -0.537445        -0.445839
 H         2.408626         1.924233        -0.681869
 H         3.265984        -0.237543        -2.373901
