19
Iteration:   149
 C         0.130542         0.447119         0.050553
 C         1.641678         0.092611         0.193355
 C         2.131100        -0.556036         1.429702
 C         3.573823        -1.149201         1.074555
 C         4.166785        -0.393709        -0.188575
 O         4.142444         1.103526         0.036983
 C         2.722724         0.985554        -0.501976
 C         3.026266        -0.287627        -1.275185
 O         1.723952        -0.877811        -0.913091
 H        -0.278093         1.291484         0.846932
 H        -0.110971         0.905946        -0.892899
 H        -0.469039        -0.456725         0.120412
 H         2.271086         0.173576         2.228458
 H         1.413459        -1.361278         1.765727
 H         4.345647        -1.191190         1.946334
 H         3.502731        -2.278123         0.778688
 H         5.165916        -0.767938        -0.458858
 H         2.262372         1.841013        -1.021073
 H         3.341893        -0.200845        -2.354785
