19
Iteration:  3750charge 0 multiplicity 1
 C         0.219098         0.586130         0.273351
 C         1.603362         0.001096         0.117433
 C         2.205296        -0.640615         1.356635
 C         3.584580        -1.181120         0.913988
 C         4.087260        -0.429487        -0.224566
 O         3.938476         0.995240         0.280142
 C         2.678370         1.028583        -0.478514
 C         3.105306        -0.189328        -1.365256
 O         1.795335        -0.897011        -1.069086
 H         0.379381         1.545013         0.811008
 H        -0.028467         0.925422        -0.759298
 H        -0.635382         0.133872         0.669752
 H         2.464138         0.173502         2.114648
 H         1.473252        -1.327121         1.925129
 H         4.303662        -1.039024         1.806712
 H         3.593589        -2.321023         0.895363
 H         5.219219        -0.439818        -0.426940
 H         2.472940         2.058480        -0.749750
 H         3.230559        -0.165266        -2.454862
