19
Iteration:  1418
 C         0.185773         0.540228         0.144857
 C         1.578980         0.075117         0.118465
 C         2.278004        -0.547042         1.393554
 C         3.666778        -1.164600         1.055505
 C         4.167169        -0.397884        -0.144816
 O         3.921361         0.994450         0.198551
 C         2.685001         0.976284        -0.508359
 C         2.932631        -0.248384        -1.331691
 O         1.790121        -0.911188        -1.057873
 H        -0.021927         1.190663         1.018328
 H         0.010383         1.305162        -0.706725
 H        -0.489079        -0.305310         0.119637
 H         2.608340         0.380889         2.043653
 H         1.556449        -1.208376         1.970788
 H         4.432864        -1.008659         1.768813
 H         3.486030        -2.328660         0.865210
 H         5.185015        -0.638510        -0.585806
 H         2.556097         1.948198        -0.822251
 H         3.371313        -0.250372        -2.324799
