19
Iteration:  4819charge 0 multiplicity 1
 C         0.280525         0.577342         0.223198
 C         1.619827         0.067581         0.093506
 C         2.273195        -0.552284         1.398945
 C         3.650939        -1.254910         0.999327
 C         4.123082        -0.396191        -0.201049
 O         3.927306         1.114694         0.207732
 C         2.607101         0.942519        -0.518577
 C         3.035067        -0.273880        -1.267915
 O         1.710595        -0.888507        -1.069975
 H         0.060517         1.106158         1.153670
 H        -0.072913         1.050226        -0.669975
 H        -0.304820        -0.381759         0.159110
 H         2.566885         0.162722         2.157607
 H         1.657363        -1.406881         1.819392
 H         4.304503        -1.149779         1.924214
 H         3.441186        -2.420487         0.783027
 H         5.195843        -0.403099        -0.498689
 H         2.395990         1.941229        -1.098985
 H         3.482110        -0.209867        -2.335208
