19
Iteration:  2705charge 0 multiplicity 1
 C         0.193754         0.542623         0.340238
 C         1.590833         0.072731         0.045808
 C         2.228007        -0.579123         1.292010
 C         3.561218        -1.181206         0.956754
 C         4.182546        -0.370476        -0.195641
 O         3.888608         1.008539         0.243007
 C         2.716723         1.030617        -0.559768
 C         3.057885        -0.196776        -1.341163
 O         1.827623        -0.950075        -1.007683
 H         0.372891         1.305727         1.036521
 H        -0.260389         0.963591        -0.502171
 H        -0.482709        -0.233838         0.738631
 H         2.242420         0.222642         2.158889
 H         1.637086        -1.336553         1.784818
 H         4.288261        -1.336016         1.801556
 H         3.310952        -2.238745         0.653146
 H         5.180657        -0.621388        -0.406761
 H         2.415586         2.080051        -0.810541
 H         3.478854        -0.335775        -2.354131
