19
Iteration:  1358charge 0 multiplicity 1
 C         0.114979         0.503981         0.270110
 C         1.604235         0.147027         0.095698
 C         2.169179        -0.566968         1.300849
 C         3.537195        -1.177278         0.957868
 C         4.124419        -0.396271        -0.210967
 O         3.981775         1.057751         0.169158
 C         2.741671         0.984740        -0.609400
 C         3.115086        -0.252065        -1.275905
 O         1.840598        -0.903814        -0.883369
 H        -0.045225         1.299486         1.059121
 H        -0.404507         0.710622        -0.647827
 H        -0.472467        -0.392139         0.662310
 H         2.312054        -0.051957         2.210026
 H         1.512878        -1.409183         1.447343
 H         4.334061        -1.188574         1.820788
 H         3.515921        -2.215054         0.645287
 H         5.175905        -0.549264        -0.441985
 H         2.645279         2.158185        -0.960757
 H         3.404899        -0.511508        -2.376424
