19
Iteration:  3062
 C         0.236174         0.521626         0.331269
 C         1.597981         0.114658         0.117046
 C         2.131529        -0.631071         1.324848
 C         3.501072        -1.236709         0.915156
 C         4.181563        -0.390663        -0.182705
 O         3.951371         1.091960         0.159219
 C         2.657040         1.081355        -0.610017
 C         3.121169        -0.264154        -1.249934
 O         1.883305        -0.885137        -0.966771
 H         0.329917         1.250884         1.217352
 H        -0.345561         0.879429        -0.546562
 H        -0.444979        -0.235592         0.783831
 H         2.278485        -0.003918         2.232500
 H         1.365072        -1.472282         1.564179
 H         4.167127        -1.537238         1.790465
 H         3.213966        -2.229253         0.432658
 H         5.223233        -0.701979        -0.466511
 H         2.293563         2.004980        -1.182991
 H         3.467170        -0.370461        -2.324468
