19
Iteration:  1399charge 0 multiplicity 1
 C         0.179919         0.498956         0.208544
 C         1.609166        -0.022837         0.117522
 C         2.336206        -0.475726         1.504014
 C         3.540474        -1.239192         0.985947
 C         4.105438        -0.385304        -0.133057
 O         3.924022         1.078537         0.155411
 C         2.685030         1.011662        -0.508295
 C         3.137774        -0.260417        -1.352101
 O         1.746168        -0.876296        -1.067361
 H         0.171474         1.202161         0.968991
 H         0.091506         1.121601        -0.763886
 H        -0.446729        -0.392283         0.115672
 H         2.558911         0.570527         1.791472
 H         1.619729        -1.067233         2.087769
 H         4.194365        -1.467839         1.836292
 H         3.262977        -2.261514         0.767529
 H         5.067662        -0.763848        -0.517890
 H         2.090808         1.797784        -0.933862
 H         3.552541        -0.272939        -2.302568
