19
Iteration:  1993
 C         0.184521         0.508276         0.168992
 C         1.583777         0.035063         0.174150
 C         2.277787        -0.590789         1.400286
 C         3.616426        -1.250025         0.968843
 C         4.111806        -0.327038        -0.159863
 O         3.951709         1.082754         0.186280
 C         2.715014         1.019291        -0.526480
 C         3.034100        -0.264165        -1.282465
 O         1.764014        -0.855979        -1.034143
 H         0.074366         1.231659         0.945190
 H        -0.104154         0.989492        -0.837199
 H        -0.416593        -0.312414         0.516268
 H         2.747974         0.222945         1.952699
 H         1.623020        -1.128768         2.075213
 H         4.324512        -1.635745         1.752282
 H         3.371989        -2.208451         0.441748
 H         5.156442        -0.585063        -0.407646
 H         2.148634         1.733525        -1.069504
 H         3.355277        -0.271557        -2.394123
