19
Iteration:  3516charge 0 multiplicity 1
 C         0.145204         0.502877         0.307373
 C         1.645550         0.069095         0.087937
 C         2.128965        -0.577240         1.386926
 C         3.528649        -1.248805         0.899840
 C         4.098880        -0.366188        -0.176715
 O         4.001455         1.041429         0.151508
 C         2.748516         1.105641        -0.561334
 C         3.041911        -0.149526        -1.309637
 O         1.879367        -0.980305        -0.947023
 H         0.026273         1.046125         1.246940
 H        -0.221234         1.321850        -0.293226
 H        -0.400810        -0.469634         0.209971
 H         2.232348         0.109881         2.291956
 H         1.447709        -1.435454         1.622576
 H         4.257512        -1.415235         1.758636
 H         3.373514        -2.275267         0.380607
 H         5.119622        -0.701737        -0.398305
 H         2.573921         2.214992        -1.015677
 H         3.465438        -0.176141        -2.359772
