19
Iteration:  1396charge 0 multiplicity 1
 C         0.194114         0.471332         0.219515
 C         1.611722        -0.002661         0.104962
 C         2.321013        -0.499796         1.494802
 C         3.501329        -1.228018         0.971835
 C         4.105752        -0.362632        -0.113493
 O         3.930355         1.093580         0.145507
 C         2.692060         0.993234        -0.525324
 C         3.119227        -0.263769        -1.348734
 O         1.769234        -0.881456        -1.047627
 H         0.127650         1.245036         1.001957
 H         0.066979         1.123802        -0.731377
 H        -0.446077        -0.390611         0.224433
 H         2.631569         0.575735         1.846809
 H         1.580677        -1.046389         2.156912
 H         4.214238        -1.428398         1.727508
 H         3.113617        -2.300411         0.636052
 H         5.041545        -0.781871        -0.538088
 H         2.273985         1.857311        -0.907279
 H         3.673784        -0.312905        -2.296914
