19
Iteration:  2825charge 0 multiplicity 1
 C         0.146307         0.547901         0.256503
 C         1.604836         0.052915         0.068606
 C         2.269852        -0.556796         1.323177
 C         3.705587        -1.242240         1.043871
 C         4.149839        -0.420533        -0.089693
 O         3.984296         1.046399         0.278039
 C         2.674641         0.972429        -0.535217
 C         2.990839        -0.250391        -1.388175
 O         1.727169        -0.881813        -1.129565
 H         0.155075         1.009117         1.278354
 H        -0.084974         1.455364        -0.518872
 H        -0.723134        -0.216717         0.368818
 H         2.489586         0.317642         2.027714
 H         1.630513        -1.245348         1.799127
 H         4.359910        -1.137474         1.866815
 H         3.582234        -2.298608         0.750825
 H         5.133850        -0.399128        -0.374482
 H         2.293569         1.925661        -0.971815
 H         3.292342        -0.062106        -2.426116
