19
Iteration:  4193charge 0 multiplicity 1
 C         0.149398         0.576532         0.223539
 C         1.620488         0.135897         0.127065
 C         2.181445        -0.631328         1.295327
 C         3.540532        -1.181606         0.885655
 C         4.159301        -0.322568        -0.179885
 O         4.031878         1.067252         0.132923
 C         2.730317         1.052866        -0.478207
 C         3.061594        -0.272766        -1.275421
 O         1.810158        -1.013500        -0.872751
 H        -0.092095         1.172195         1.166371
 H        -0.262214         1.204182        -0.586876
 H        -0.405494        -0.367627         0.137408
 H         2.246209         0.026968         2.224108
 H         1.466430        -1.439383         1.517161
 H         4.073287        -1.345696         1.847282
 H         3.418747        -2.219172         0.429054
 H         5.204765        -0.593056        -0.389286
 H         2.497694         2.102777        -0.931292
 H         3.086655        -0.457095        -2.421393
