19
Iteration:  4908
 C         0.142093         0.580450         0.281489
 C         1.526319         0.054562         0.104356
 C         2.284222        -0.589108         1.356637
 C         3.732538        -1.158655         1.025493
 C         4.152115        -0.479121        -0.185042
 O         3.883179         1.016699         0.258739
 C         2.707426         0.944565        -0.508708
 C         3.054626        -0.210532        -1.336305
 O         1.757843        -0.851128        -1.140872
 H         0.089755         1.610897         0.664033
 H        -0.219550         0.555842        -0.724958
 H        -0.555463         0.055027         0.968953
 H         2.296562         0.234848         2.147214
 H         1.735029        -1.412210         1.812036
 H         4.502836        -1.060893         1.890231
 H         3.816962        -2.314441         0.878627
 H         5.187237        -0.511059        -0.576229
 H         2.365870         1.906327        -1.063014
 H         3.343455        -0.194821        -2.411944
