19
Iteration:  2580charge 0 multiplicity 1
 C         0.160475         0.454273         0.355259
 C         1.586552        -0.001584         0.152005
 C         2.190370        -0.689695         1.383771
 C         3.472059        -1.300083         0.947668
 C         4.121331        -0.268739        -0.167535
 O         4.001071         1.157741         0.097871
 C         2.732887         1.066632        -0.586632
 C         3.136042        -0.229998        -1.304312
 O         1.874211        -0.846634        -1.000772
 H         0.259924         1.389663         1.025151
 H        -0.300613         0.948653        -0.572959
 H        -0.451034        -0.317102         0.798928
 H         2.316968         0.109787         2.239314
 H         1.390587        -1.409636         1.778254
 H         3.935899        -1.745054         1.808492
 H         3.061001        -2.094881         0.255767
 H         5.181528        -0.516013        -0.458524
 H         2.309574         1.883547        -1.152561
 H         3.519106        -0.362667        -2.311344
