19
Iteration:  3480
 C         0.192794         0.564575         0.121502
 C         1.601788        -0.013230         0.127211
 C         2.329269        -0.574679         1.450902
 C         3.742954        -1.264110         0.991276
 C         4.136798        -0.416101        -0.143287
 O         3.921738         0.995559         0.213713
 C         2.705042         1.049873        -0.461945
 C         2.995608        -0.146966        -1.297190
 O         1.653314        -0.856396        -1.071945
 H        -0.137670         1.157528         0.908691
 H         0.141814         0.893034        -0.912999
 H        -0.597947        -0.208684         0.041939
 H         2.424978         0.307457         2.109012
 H         1.654434        -1.229462         1.903098
 H         4.587372        -1.330919         1.655074
 H         3.469673        -2.236975         0.664027
 H         5.086475        -0.549546        -0.517800
 H         2.419888         1.949854        -0.929052
 H         3.310693        -0.145195        -2.318758
