19
Iteration:  4372
 C         0.164130         0.485280         0.233480
 C         1.601305         0.084272         0.111082
 C         2.157138        -0.631107         1.547833
 C         3.541779        -1.285958         0.999913
 C         4.109688        -0.426013        -0.115943
 O         4.048136         1.156812         0.010274
 C         2.746398         1.057382        -0.553082
 C         3.083452        -0.216133        -1.261489
 O         1.808314        -0.865754        -1.055633
 H         0.078297         1.081219         1.099877
 H        -0.181787         1.103563        -0.596147
 H        -0.476952        -0.430156         0.332574
 H         2.267877         0.173769         2.306359
 H         1.332107        -1.324771         1.912486
 H         4.225263        -1.722762         1.768434
 H         3.138807        -2.092230         0.294559
 H         5.173989        -0.771105        -0.236163
 H         2.414557         1.942291        -1.084742
 H         3.499950        -0.195203        -2.289053
