19
Iteration:   492
 C         0.119007         0.496318         0.079210
 C         1.599852         0.119877         0.131003
 C         2.245398        -0.567207         1.361006
 C         3.693208        -1.116282         1.061647
 C         4.174495        -0.450085        -0.243171
 O         3.962271         1.000853         0.274227
 C         2.721784         0.998079        -0.538805
 C         2.993957        -0.300353        -1.316316
 O         1.709515        -0.839440        -0.974676
 H        -0.086876         1.273220         0.802536
 H        -0.271794         0.975599        -0.832939
 H        -0.379951        -0.507020         0.196910
 H         2.605529         0.216922         2.109368
 H         1.570538        -1.243043         1.845372
 H         4.488908        -0.742283         1.701965
 H         3.728590        -2.293383         1.074247
 H         5.168526        -0.634113        -0.519218
 H         2.583939         1.981124        -0.961386
 H         3.282292        -0.546548        -2.292738
