19
Iteration:  3129
 C         0.190247         0.537956         0.193095
 C         1.612536         0.077337         0.138288
 C         2.199872        -0.703285         1.394981
 C         3.567472        -1.189366         0.966744
 C         4.131732        -0.375724        -0.170453
 O         4.061289         1.045918         0.126171
 C         2.682867         1.084197        -0.499146
 C         2.967019        -0.169084        -1.291317
 O         1.789240        -0.921545        -0.994418
 H         0.107758         1.196358         1.049705
 H         0.050737         1.051929        -0.812866
 H        -0.470363        -0.352137         0.325820
 H         2.215220         0.026738         2.263423
 H         1.603858        -1.550904         1.836998
 H         4.233564        -1.233951         1.852584
 H         3.612445        -2.272270         0.588217
 H         5.184184        -0.650608        -0.415689
 H         2.445473         2.150421        -0.853059
 H         3.204600        -0.270494        -2.402351
