19
Iteration:  4564charge 0 multiplicity 1
 C         0.212644         0.498426         0.234644
 C         1.650420         0.159999         0.193598
 C         2.129085        -0.543773         1.379237
 C         3.487783        -1.228924         0.871798
 C         4.178134        -0.349231        -0.197842
 O         4.010363         1.077953         0.175357
 C         2.737979         0.970575        -0.591580
 C         3.088575        -0.256712        -1.352143
 O         1.794068        -0.921853        -0.867351
 H        -0.110123         0.950501         1.187203
 H        -0.184023         1.142537        -0.598608
 H        -0.322871        -0.427131         0.139746
 H         2.283125        -0.042393         2.319304
 H         1.437970        -1.348657         1.605717
 H         4.217818        -1.353374         1.684473
 H         3.279914        -2.211772         0.382787
 H         5.182897        -0.391032        -0.355280
 H         2.368361         1.902276        -1.052354
 H         3.182783        -0.490391        -2.360465
