19
Iteration:  4176charge 0 multiplicity 1
 C         0.175014         0.524504         0.263103
 C         1.647438         0.131070         0.144911
 C         2.119732        -0.627631         1.328655
 C         3.595339        -1.281405         0.990388
 C         4.116063        -0.420820        -0.170597
 O         3.992203         1.102714         0.185513
 C         2.732851         1.087749        -0.635636
 C         3.020086        -0.251823        -1.331702
 O         1.822615        -0.888898        -0.955469
 H         0.180057         1.213486         1.082062
 H        -0.239027         0.918467        -0.683562
 H        -0.529817        -0.254458         0.607877
 H         2.261416        -0.045716         2.201310
 H         1.430276        -1.484995         1.535973
 H         4.351450        -1.065392         1.737443
 H         3.656383        -2.356534         0.865391
 H         5.119987        -0.578289        -0.590538
 H         2.418223         2.034318        -0.938894
 H         3.452652        -0.509340        -2.239620
