19
Iteration:  4986
 C         0.179075         0.512658         0.227163
 C         1.618220         0.058704         0.135114
 C         2.310060        -0.514228         1.368710
 C         3.639831        -1.173316         1.013706
 C         4.117041        -0.429300        -0.271840
 O         3.943156         1.041768         0.292796
 C         2.740348         0.994253        -0.538072
 C         2.999086        -0.257339        -1.337489
 O         1.739526        -0.912155        -1.031459
 H        -0.299856         0.671871         1.193769
 H        -0.051609         1.416738        -0.346871
 H        -0.477406        -0.086180        -0.370320
 H         2.475319         0.432017         2.046209
 H         1.627812        -1.218466         1.792663
 H         4.445414        -1.180526         1.861827
 H         3.539578        -2.276570         0.748510
 H         5.111299        -0.577392        -0.749424
 H         2.294728         1.957447        -0.819811
 H         3.184640        -0.285785        -2.373205
