19
Iteration:  4605
 C         0.251069         0.611241         0.243999
 C         1.627988        -0.042029         0.099977
 C         2.233335        -0.571159         1.466834
 C         3.591672        -1.192689         0.944844
 C         4.101260        -0.369543        -0.190443
 O         3.963117         1.051324         0.202255
 C         2.685091         0.995698        -0.517279
 C         3.018100        -0.259252        -1.325408
 O         1.751697        -0.925373        -1.091966
 H         0.025070         0.980105         1.239777
 H         0.164749         1.280613        -0.565516
 H        -0.492437        -0.117574         0.023811
 H         2.375084         0.381212         2.086992
 H         1.556827        -1.192895         1.993702
 H         4.311261        -0.912385         1.767805
 H         3.673548        -2.244462         0.901761
 H         5.123430        -0.767517        -0.474426
 H         2.313252         1.989871        -0.782101
 H         3.422844        -0.257299        -2.303095
