19
Iteration:   399charge 0 multiplicity 1
 C         0.202754         0.640790         0.239277
 C         1.609648         0.105980         0.122591
 C         2.119332        -0.631149         1.298878
 C         3.701735        -1.026806         1.078887
 C         4.162643        -0.466939        -0.262164
 O         3.900854         0.923637         0.264474
 C         2.710378         1.018155        -0.558313
 C         3.037298        -0.232826        -1.353789
 O         1.815047        -1.030011        -0.977339
 H        -0.011543         1.547862         0.890067
 H        -0.019085         1.132318        -0.731879
 H        -0.667199         0.041229         0.401760
 H         1.964528         0.012507         2.135213
 H         1.501388        -1.579471         1.455611
 H         4.218074        -0.412364         1.831620
 H         3.964523        -2.007481         1.165205
 H         5.285404        -0.509646        -0.546527
 H         2.546024         1.957069        -1.146003
 H         3.253944        -0.154118        -2.500785
