19
Iteration:  3139
 C         0.162746         0.547481         0.259635
 C         1.584616         0.022854         0.159653
 C         2.149599        -0.631588         1.368836
 C         3.560785        -1.193756         0.944540
 C         4.152857        -0.321297        -0.211345
 O         4.039740         1.013992         0.145928
 C         2.747840         1.087990        -0.542232
 C         3.026558        -0.212194        -1.279826
 O         1.856690        -0.914146        -0.943311
 H        -0.101027         1.119504         1.128079
 H        -0.409291         1.037500        -0.554958
 H        -0.457355        -0.338694         0.269577
 H         2.168938         0.011392         2.270945
 H         1.429145        -1.503293         1.312307
 H         4.310482        -1.312117         1.760236
 H         3.127428        -2.170082         0.541047
 H         5.127609        -0.570962        -0.711414
 H         2.483227         2.112633        -0.940871
 H         3.383438        -0.347827        -2.374592
