19
Iteration:  2076charge 0 multiplicity 1
 C         0.231324         0.535092         0.311608
 C         1.572407        -0.028393         0.051492
 C         2.252537        -0.626063         1.389320
 C         3.714712        -1.192375         1.106524
 C         4.112186        -0.341345        -0.120443
 O         3.955193         1.052260         0.182628
 C         2.695002         1.034885        -0.584799
 C         3.063891        -0.259960        -1.323423
 O         1.665009        -0.841624        -1.177999
 H         0.259081         1.246527         1.230776
 H        -0.222057         0.974203        -0.503999
 H        -0.590713        -0.258420         0.478014
 H         2.452232         0.070390         2.245751
 H         1.625301        -1.446539         1.765814
 H         4.308806        -0.799107         1.886901
 H         3.714958        -2.253774         0.974932
 H         5.122860        -0.631162        -0.369019
 H         2.281238         1.883676        -1.146072
 H         3.432420        -0.389478        -2.281241
