19
Iteration:  2067
 C         0.175598         0.536601         0.304385
 C         1.582653         0.033709         0.026503
 C         2.284981        -0.649963         1.390465
 C         3.749539        -1.149101         1.105128
 C         4.072108        -0.400610        -0.115341
 O         3.917632         1.042482         0.165299
 C         2.704357         0.935153        -0.543850
 C         3.009781        -0.287344        -1.288860
 O         1.731111        -0.787068        -1.172062
 H         0.235257         1.358664         1.054558
 H        -0.015267         1.011409        -0.604936
 H        -0.575312        -0.196993         0.626729
 H         2.191308         0.160868         2.158068
 H         1.661934        -1.437782         1.677951
 H         4.496894        -0.973800         1.871763
 H         3.919815        -2.176002         0.951978
 H         5.034730        -0.393948        -0.562713
 H         2.258525         1.914348        -1.017281
 H         3.474417        -0.349145        -2.267157
