19
Iteration:  3375
 C         0.151706         0.554097         0.210854
 C         1.653921         0.077097         0.117426
 C         2.250273        -0.632289         1.323003
 C         3.590013        -1.199749         0.953227
 C         4.106826        -0.379081        -0.258863
 O         3.922271         1.002734         0.266477
 C         2.731287         1.116662        -0.417392
 C         3.037735        -0.303332        -1.350296
 O         1.788928        -0.935548        -1.007060
 H         0.051330         1.391219         0.914943
 H         0.098691         1.179167        -0.662679
 H        -0.515209        -0.320002         0.272934
 H         2.409118         0.198182         2.057707
 H         1.535872        -1.370814         1.779862
 H         4.341243        -0.974437         1.768626
 H         3.490055        -2.312067         1.008878
 H         5.167083        -0.354544        -0.679480
 H         2.548347         2.149992        -0.780973
 H         3.246652        -0.242759        -2.435621
