19
Iteration:  3169charge 0 multiplicity 1
 C         0.198818         0.503924         0.329446
 C         1.605666         0.070689         0.089805
 C         2.267822        -0.566900         1.298519
 C         3.527510        -1.300380         0.974148
 C         4.171714        -0.351196        -0.080522
 O         3.942497         1.042509         0.190108
 C         2.718303         1.070096        -0.617643
 C         3.046550        -0.231638        -1.304719
 O         1.778743        -0.859187        -1.076908
 H        -0.057948         0.878434         1.370411
 H        -0.264829         1.183127        -0.337169
 H        -0.271148        -0.467150         0.423252
 H         2.511862         0.167388         2.030834
 H         1.499491        -1.129250         1.890322
 H         4.159827        -1.421497         1.890362
 H         3.353763        -2.318601         0.634120
 H         5.250771        -0.583655        -0.267326
 H         2.443165         1.971265        -1.050233
 H         3.414602        -0.317121        -2.342988
