19
Iteration:  3502
 C         0.200633         0.543875         0.206025
 C         1.579213         0.072288         0.153084
 C         2.240106        -0.610439         1.388607
 C         3.511291        -1.214123         0.933618
 C         4.135220        -0.369037        -0.239258
 O         3.996481         1.035292         0.191926
 C         2.685771         1.024716        -0.433785
 C         3.040464        -0.227767        -1.325114
 O         1.849003        -0.900866        -1.022558
 H         0.080683         0.815457         1.212656
 H        -0.059913         1.124208        -0.698108
 H        -0.532771        -0.292853         0.158663
 H         2.474688         0.248473         2.055788
 H         1.571677        -1.204309         1.937411
 H         4.253550        -1.181886         1.719855
 H         3.354931        -2.245343         0.695312
 H         5.130564        -0.525229        -0.479843
 H         2.329662         1.981129        -0.789250
 H         3.176480        -0.277478        -2.392696
