19
Iteration:  1837
 C         0.135800         0.421586         0.249694
 C         1.607327         0.133779         0.106989
 C         2.252896        -0.606332         1.409672
 C         3.512082        -1.355881         0.948292
 C         4.169033        -0.343948        -0.061193
 O         3.976384         1.146813         0.107691
 C         2.786461         1.109049        -0.608424
 C         3.064964        -0.283497        -1.295095
 O         1.744710        -0.853545        -0.989076
 H        -0.016172         1.321898         0.963708
 H        -0.172697         0.623226        -0.696298
 H        -0.416368        -0.420989         0.811574
 H         2.451687         0.154357         2.201298
 H         1.510576        -1.218965         1.795919
 H         4.269055        -1.479501         1.760554
 H         3.221857        -2.301652         0.427878
 H         5.163678        -0.700804        -0.418355
 H         2.563363         2.107308        -1.164310
 H         3.560085        -0.439154        -2.252059
