19
Iteration:  1763
 C         0.227996         0.613276         0.197732
 C         1.650041         0.038028         0.137595
 C         2.224773        -0.643929         1.392097
 C         3.663597        -1.210404         0.971234
 C         4.147219        -0.330675        -0.132608
 O         3.938921         1.104073         0.170383
 C         2.666307         0.980788        -0.586203
 C         3.035652        -0.336820        -1.288366
 O         1.724695        -0.886069        -1.016290
 H        -0.043010         1.093087         1.185845
 H         0.220271         1.337876        -0.598108
 H        -0.567509        -0.145038         0.054634
 H         2.295891         0.060573         2.314077
 H         1.602796        -1.549549         1.631840
 H         4.119276        -1.069274         1.981849
 H         3.623783        -2.257332         0.761595
 H         5.158438        -0.371540        -0.423177
 H         2.180690         1.742644        -1.025214
 H         3.419841        -0.424133        -2.320032
