19
Iteration:  4012
 C         0.135899         0.577013         0.327835
 C         1.593017         0.160644         0.096352
 C         2.163427        -0.691117         1.347497
 C         3.598234        -1.244345         1.011899
 C         4.194793        -0.451209        -0.067215
 O         3.989718         1.127557         0.088275
 C         2.708185         0.988791        -0.561552
 C         3.068547        -0.260214        -1.331860
 O         1.827341        -0.830767        -1.028540
 H         0.015694         1.040421         1.347834
 H        -0.291802         1.177334        -0.547006
 H        -0.494787        -0.332771         0.249179
 H         2.104572        -0.079972         2.223609
 H         1.415949        -1.534813         1.486411
 H         4.255893        -1.338652         1.858922
 H         3.546613        -2.323535         0.717388
 H         5.277432        -0.642630        -0.331690
 H         2.429249         1.880912        -1.100350
 H         3.144917        -0.313737        -2.409888
