19
Iteration:   106charge 0 multiplicity 1
 C         0.280477         0.669335         0.235927
 C         1.555626         0.049530         0.030808
 C         2.183539        -0.503548         1.345746
 C         3.651217        -1.108813         1.040789
 C         4.157634        -0.424501        -0.176140
 O         3.852642         1.039449         0.229069
 C         2.719089         0.895049        -0.564840
 C         3.069529        -0.326631        -1.325385
 O         1.806897        -0.996769        -1.020659
 H         0.229822         1.221743         1.323947
 H        -0.071121         1.383644        -0.481110
 H        -0.467083        -0.126044         0.258731
 H         2.099038         0.303255         2.096887
 H         1.390900        -1.272793         1.594424
 H         4.272749        -0.693939         1.888857
 H         3.704948        -2.249349         1.241352
 H         5.192391        -0.524753        -0.463903
 H         2.369335         1.830390        -1.111782
 H         3.336023        -0.341990        -2.400150
