19
Iteration:  1116
 C         0.163698         0.524936         0.224429
 C         1.584518         0.069171         0.089418
 C         2.251081        -0.624137         1.386930
 C         3.689371        -1.221541         1.051837
 C         4.139607        -0.369256        -0.120369
 O         3.945375         1.044368         0.191167
 C         2.738411         1.022494        -0.615062
 C         3.008845        -0.281364        -1.336593
 O         1.734498        -0.854042        -1.034176
 H         0.025851         1.408071         0.799278
 H        -0.183957         0.909440        -0.780320
 H        -0.478931        -0.132693         0.807500
 H         2.403343         0.218190         2.094175
 H         1.478153        -1.274310         1.709382
 H         4.409118        -1.109414         1.964983
 H         3.658785        -2.278900         0.843638
 H         5.156217        -0.548592        -0.455910
 H         2.351319         2.020183        -1.033094
 H         3.409821        -0.474949        -2.302558
