19
Iteration:   144charge 0 multiplicity 1
 C         0.123261         0.486981         0.040171
 C         1.638077         0.062594         0.171824
 C         2.148606        -0.568135         1.475803
 C         3.627707        -1.195151         1.119410
 C         4.164540        -0.397635        -0.140182
 O         4.111313         1.113313         0.024331
 C         2.754707         0.965718        -0.514923
 C         2.971679        -0.270567        -1.267197
 O         1.692916        -0.860965        -0.983627
 H        -0.161266         1.111233         0.760963
 H        -0.044601         0.981760        -0.970351
 H        -0.477604        -0.449799         0.115042
 H         2.291457         0.216286         2.239471
 H         1.563691        -1.356853         1.898831
 H         4.422688        -1.080882         1.832585
 H         3.569833        -2.208356         0.893668
 H         5.211726        -0.650008        -0.457041
 H         2.352847         1.889836        -0.942839
 H         3.278110        -0.265754        -2.312035
