19
Iteration:  2581
 C         0.164663         0.456274         0.350510
 C         1.589450        -0.003854         0.166878
 C         2.194493        -0.692638         1.380263
 C         3.475579        -1.294030         0.940364
 C         4.120463        -0.268335        -0.162120
 O         3.997996         1.159062         0.093280
 C         2.733363         1.058019        -0.579694
 C         3.135421        -0.231746        -1.296576
 O         1.871994        -0.839607        -1.005293
 H         0.253516         1.343001         1.011977
 H        -0.293635         0.933307        -0.589938
 H        -0.441228        -0.288393         0.763955
 H         2.300954         0.120571         2.265501
 H         1.388850        -1.375351         1.765207
 H         3.949212        -1.751291         1.797851
 H         3.028631        -2.128032         0.257440
 H         5.134845        -0.497327        -0.460263
 H         2.308223         1.889143        -1.164397
 H         3.514105        -0.407064        -2.323356
