19
Iteration:  2551
 C         0.182954         0.497962         0.362394
 C         1.617682         0.086365         0.117057
 C         2.232421        -0.551942         1.259310
 C         3.580801        -1.182250         0.971953
 C         4.113747        -0.356968        -0.237999
 O         3.912725         0.999193         0.243245
 C         2.695089         1.008052        -0.468772
 C         3.054096        -0.248504        -1.328687
 O         1.851117        -0.895237        -1.083144
 H         0.149708         1.326929         0.984507
 H        -0.306192         0.821291        -0.576402
 H        -0.327478        -0.335575         0.836516
 H         2.385449         0.226956         2.056493
 H         1.588892        -1.352981         1.557174
 H         4.166727        -1.049610         1.906904
 H         3.496834        -2.293525         0.652964
 H         5.114437        -0.526288        -0.481627
 H         2.297273         1.981539        -0.900257
 H         3.507794        -0.268549        -2.375006
