19
Iteration:  4384
 C         0.128145         0.444663         0.256250
 C         1.600886         0.074761         0.150818
 C         2.170394        -0.579264         1.376263
 C         3.417749        -1.299926         1.018912
 C         4.145271        -0.393406        -0.092422
 O         4.137473         1.101364        -0.027340
 C         2.646541         1.049021        -0.512676
 C         3.126759        -0.199029        -1.268525
 O         1.844554        -0.796640        -1.001999
 H        -0.142244         0.924449         1.196035
 H        -0.213601         1.005144        -0.610166
 H        -0.424100        -0.556400         0.226637
 H         2.451998         0.238257         2.135971
 H         1.515526        -1.343250         1.882955
 H         4.205390        -1.547929         1.878370
 H         3.170473        -2.334594         0.599770
 H         5.196772        -0.674790        -0.486871
 H         2.309788         2.036616        -0.861448
 H         3.412437        -0.546535        -2.312034
