19
Iteration:  2088charge 0 multiplicity 1
 C         0.209847         0.511697         0.324341
 C         1.637249         0.029686         0.121564
 C         2.198586        -0.661558         1.336909
 C         3.572993        -1.144869         1.056418
 C         4.199121        -0.399578        -0.152958
 O         3.953684         1.106174         0.174005
 C         2.689553         1.018368        -0.613559
 C         3.075845        -0.231837        -1.352939
 O         1.711115        -0.910493        -1.090042
 H         0.206030         1.081836         1.318753
 H        -0.122481         1.151027        -0.402311
 H        -0.354544        -0.426678         0.562943
 H         2.181347         0.276800         1.959428
 H         1.525378        -1.334414         1.807934
 H         4.225565        -1.103828         1.906644
 H         3.620710        -2.181413         0.864757
 H         5.222093        -0.587776        -0.430677
 H         2.496527         2.090811        -0.877317
 H         3.377051        -0.333488        -2.370808
