19
Iteration:  4778
 C         0.094303         0.515427         0.300057
 C         1.585159         0.088948         0.128035
 C         2.170806        -0.573675         1.350000
 C         3.591041        -1.193706         1.016108
 C         4.152164        -0.409114        -0.209187
 O         4.078025         1.058975         0.115864
 C         2.687799         1.017919        -0.568155
 C         3.101834        -0.203577        -1.286336
 O         1.808390        -0.938666        -0.982573
 H        -0.050511         0.703646         1.403733
 H        -0.270273         1.411417        -0.211553
 H        -0.531497        -0.327687        -0.112713
 H         2.128657         0.187606         2.152914
 H         1.416604        -1.304683         1.553049
 H         4.311579        -0.847176         1.776172
 H         3.589809        -2.246879         0.828308
 H         5.053188        -0.825889        -0.692954
 H         2.229052         1.882447        -0.928124
 H         3.367519        -0.237156        -2.340528
