19
Iteration:  4124charge 0 multiplicity 1
 C         0.162356         0.603810         0.269322
 C         1.584546         0.000134         0.055692
 C         2.232127        -0.674135         1.318268
 C         3.595035        -1.230262         1.042797
 C         4.091473        -0.412433        -0.197300
 O         3.963135         1.070010         0.214486
 C         2.717890         1.056422        -0.540980
 C         3.045240        -0.215566        -1.300022
 O         1.804614        -0.907309        -1.034679
 H         0.290235         1.598920         0.732640
 H        -0.417856         0.766717        -0.684790
 H        -0.547668        -0.060695         0.892965
 H         2.499624         0.193703         1.979141
 H         1.706264        -1.376079         1.924651
 H         4.440945        -1.160927         1.784701
 H         3.581392        -2.266303         0.819728
 H         5.131804        -0.544346        -0.535410
 H         2.510728         2.068924        -0.907131
 H         3.389392        -0.135733        -2.330605
