19
Iteration:  3315charge 0 multiplicity 1
 C         0.179335         0.516606         0.261674
 C         1.632285         0.078747         0.076529
 C         2.238893        -0.634349         1.351234
 C         3.569017        -1.280078         0.986572
 C         4.074792        -0.391241        -0.164556
 O         3.968462         1.076401         0.183362
 C         2.736927         1.050146        -0.544856
 C         3.105220        -0.218382        -1.298498
 O         1.778461        -0.853283        -0.982494
 H        -0.143260         1.113686         1.169302
 H        -0.242110         1.058061        -0.649902
 H        -0.503390        -0.325593         0.386425
 H         2.336129         0.217349         2.091604
 H         1.483633        -1.304879         1.798155
 H         4.354520        -1.443924         1.737682
 H         3.454799        -2.246124         0.418114
 H         5.119815        -0.617164        -0.368010
 H         2.457610         1.992713        -1.104682
 H         3.313127        -0.241274        -2.379244
