19
Iteration:  1029
 C         0.182107         0.616567         0.274905
 C         1.578926        -0.000074         0.101025
 C         2.255198        -0.674928         1.304267
 C         3.689107        -1.181664         1.113066
 C         4.227403        -0.352956        -0.055532
 O         3.910512         1.102055         0.118268
 C         2.712202         0.951663        -0.601021
 C         3.000644        -0.303999        -1.298220
 O         1.675004        -0.856564        -1.104857
 H         0.160480         1.039179         1.245991
 H        -0.059053         1.400715        -0.576612
 H        -0.581744        -0.216076         0.092401
 H         2.538586         0.182397         2.029181
 H         1.661357        -1.438046         1.820461
 H         4.437691        -1.184821         2.050202
 H         3.714114        -2.246755         0.918292
 H         5.286759        -0.408660        -0.255020
 H         2.269756         1.935322        -0.992722
 H         3.464726        -0.419081        -2.287551
