19
Iteration:  3422
 C         0.164605         0.584370         0.394902
 C         1.622190         0.012076         0.112610
 C         2.125562        -0.673729         1.328674
 C         3.517679        -1.243117         0.969752
 C         4.106081        -0.374666        -0.071225
 O         3.996314         1.172840         0.107242
 C         2.736835         1.026738        -0.554856
 C         3.098018        -0.221817        -1.355620
 O         1.852250        -0.927445        -1.078355
 H         0.223294         1.516238         1.028499
 H        -0.317597         0.969073        -0.496534
 H        -0.221747        -0.299942         0.797134
 H         2.241126         0.036001         2.104471
 H         1.325690        -1.412194         1.622139
 H         4.213138        -1.311246         1.812251
 H         3.585961        -2.205352         0.470459
 H         5.204338        -0.621913        -0.332964
 H         2.264940         1.934067        -0.706259
 H         3.470432        -0.617327        -2.330410
