19
Iteration:   589charge 0 multiplicity 1
 C         0.239547         0.497489         0.158664
 C         1.613496        -0.050586         0.103716
 C         2.302627        -0.503459         1.446493
 C         3.621977        -1.151107         1.039698
 C         4.089436        -0.368010        -0.142251
 O         3.959361         1.038023         0.235296
 C         2.677075         0.994681        -0.562613
 C         3.060460        -0.286828        -1.304377
 O         1.683950        -0.881143        -1.100476
 H         0.421217         1.580324         0.555202
 H        -0.091201         0.748569        -0.840223
 H        -0.567358        -0.078220         0.636295
 H         2.510044         0.491346         1.977790
 H         1.712194        -1.163476         2.090874
 H         4.297122        -1.135922         1.858234
 H         3.399072        -2.171883         0.713276
 H         5.087007        -0.626825        -0.442947
 H         2.302940         1.938875        -0.972276
 H         3.392427        -0.456375        -2.277173
