19
Iteration:  1664charge 0 multiplicity 1
 C         0.142161         0.533361         0.144317
 C         1.570621         0.090356         0.149200
 C         2.189243        -0.580246         1.354817
 C         3.555202        -1.183044         0.893589
 C         4.120040        -0.370770        -0.223436
 O         3.994496         1.052614         0.195538
 C         2.725108         1.044066        -0.551488
 C         3.039607        -0.221226        -1.268066
 O         1.888429        -0.963169        -0.895713
 H         0.125424         1.455685         0.794571
 H        -0.278425         0.630266        -0.801047
 H        -0.552238        -0.223130         0.646721
 H         2.364245         0.103744         2.286997
 H         1.470179        -1.394205         1.649933
 H         4.293244        -1.239964         1.768557
 H         3.418975        -2.221160         0.785013
 H         5.137698        -0.643794        -0.358247
 H         2.605862         2.035875        -0.876237
 H         3.204643        -0.455165        -2.351807
