19
Iteration:  4968charge 0 multiplicity 1
 C         0.130709         0.546041         0.186973
 C         1.578490         0.082995         0.146076
 C         2.222286        -0.615999         1.377040
 C         3.635207        -1.298168         0.918051
 C         4.184897        -0.323167        -0.106155
 O         3.982067         1.097726         0.074115
 C         2.679046         1.033943        -0.507479
 C         3.052679        -0.266746        -1.251200
 O         1.757597        -0.882381        -0.955060
 H        -0.080400         0.855422         1.251758
 H        -0.018378         1.551498        -0.397561
 H        -0.528827        -0.307499        -0.190880
 H         2.574173        -0.005952         2.173939
 H         1.708377        -1.465844         1.898988
 H         4.248451        -1.337056         1.810919
 H         3.536519        -2.255995         0.388724
 H         5.209368        -0.610076        -0.408789
 H         2.346419         1.946186        -0.970805
 H         3.383799        -0.490691        -2.292707
