19
Iteration:  1043charge 0 multiplicity 1
 C         0.191142         0.525276         0.200255
 C         1.624110         0.077814         0.115608
 C         2.300593        -0.509954         1.414717
 C         3.682554        -1.219143         0.997163
 C         4.161408        -0.356116        -0.161848
 O         3.909769         1.033487         0.224446
 C         2.650125         0.934188        -0.538101
 C         3.081290        -0.325856        -1.290093
 O         1.694075        -0.835198        -1.081998
 H        -0.173047         0.982713         1.087035
 H         0.000326         1.232399        -0.580931
 H        -0.406947        -0.384060         0.168233
 H         2.401434         0.431912         1.982422
 H         1.576617        -1.166253         1.943623
 H         4.267207        -1.097957         1.889394
 H         3.608605        -2.277795         0.699935
 H         5.129894        -0.542965        -0.567207
 H         2.352560         1.791588        -1.049375
 H         3.301303        -0.429326        -2.375735
