19
Iteration:  2999charge 0 multiplicity 1
 C         0.135814         0.567306         0.182220
 C         1.627270         0.122593         0.202453
 C         2.252969        -0.604563         1.404289
 C         3.647167        -1.161956         0.997025
 C         4.148003        -0.420389        -0.298738
 O         3.949976         0.933618         0.309690
 C         2.706483         1.054951        -0.520242
 C         2.974522        -0.188099        -1.436883
 O         1.814858        -0.937731        -1.000798
 H        -0.174832         1.199219         0.944946
 H        -0.217808         1.157459        -0.712273
 H        -0.464123        -0.330142        -0.026082
 H         2.366096         0.191397         2.209344
 H         1.601204        -1.365719         1.682976
 H         4.337025        -0.915153         1.767644
 H         3.597045        -2.248114         0.835914
 H         5.197862        -0.630005        -0.573583
 H         2.483703         2.201760        -0.575873
 H         3.147562        -0.410811        -2.524160
