19
Iteration:  2945charge 0 multiplicity 1
 C         0.218528         0.566677         0.324195
 C         1.573427         0.074697         0.117981
 C         2.140037        -0.666331         1.392482
 C         3.556722        -1.287145         0.962223
 C         4.186848        -0.334929        -0.157384
 O         3.958312         1.130426         0.156020
 C         2.757310         0.978407        -0.584459
 C         3.092320        -0.245893        -1.298480
 O         1.801794        -0.896155        -1.066758
 H         0.092174         1.131150         1.180614
 H        -0.282753         1.111235        -0.543409
 H        -0.462812        -0.157839         0.785215
 H         2.167287         0.156416         2.161321
 H         1.458646        -1.376249         1.690935
 H         4.252565        -1.234169         1.704419
 H         3.401044        -2.292100         0.626091
 H         5.240620        -0.534843        -0.219906
 H         2.412549         1.874422        -1.184201
 H         3.276662        -0.223627        -2.384150
