19
Iteration:   645charge 0 multiplicity 1
 C         0.152312         0.454066         0.175355
 C         1.646224         0.177937         0.164145
 C         2.200386        -0.559059         1.422645
 C         3.596571        -1.205617         1.015943
 C         4.125181        -0.351902        -0.142874
 O         4.022179         1.081744         0.128374
 C         2.805068         1.003821        -0.602775
 C         3.041132        -0.305310        -1.278107
 O         1.696361        -0.885829        -0.998908
 H        -0.264305         0.926626         1.061534
 H        -0.167150         0.929023        -0.790077
 H        -0.410743        -0.498375         0.254666
 H         2.391502         0.123893         2.281114
 H         1.608084        -1.341702         1.843105
 H         4.314055        -1.336382         1.777036
 H         3.278486        -2.118436         0.495200
 H         5.138467        -0.584940        -0.322655
 H         2.531510         1.923185        -1.123070
 H         3.299183        -0.490316        -2.271585
