19
Iteration:  2950charge 0 multiplicity 1
 C         0.200452         0.566532         0.278831
 C         1.572778         0.069038         0.168245
 C         2.121579        -0.668220         1.431867
 C         3.557097        -1.290729         0.947848
 C         4.215924        -0.327913        -0.107487
 O         3.979843         1.161287         0.107614
 C         2.771824         0.976526        -0.566165
 C         3.032690        -0.263501        -1.306508
 O         1.805418        -0.904486        -1.094624
 H         0.169567         1.208117         1.336399
 H        -0.252439         1.135941        -0.530050
 H        -0.562465        -0.211906         0.680253
 H         2.257551         0.084811         2.207158
 H         1.273155        -1.460485         1.678676
 H         4.362101        -1.321165         1.828464
 H         3.402398        -2.300185         0.457043
 H         5.326951        -0.415143        -0.294375
 H         2.522563         1.903927        -1.042475
 H         3.287070        -0.244132        -2.366805
