19
Iteration:  3121charge 0 multiplicity 1
 C         0.233924         0.525864         0.140771
 C         1.630320         0.049490         0.189456
 C         2.204022        -0.693274         1.385641
 C         3.621016        -1.239408         0.997763
 C         4.091960        -0.413710        -0.180605
 O         4.008816         1.117733         0.118333
 C         2.716927         1.009058        -0.424348
 C         2.994899        -0.201623        -1.347256
 O         1.736427        -0.866509        -1.013977
 H         0.081394         1.351561         0.865007
 H         0.063808         1.184540        -0.822039
 H        -0.601775        -0.287899         0.371388
 H         2.501721         0.083314         2.206195
 H         1.531170        -1.402067         1.855758
 H         4.307367        -1.020237         1.807845
 H         3.721085        -2.290752         0.686344
 H         5.097676        -0.776780        -0.345609
 H         2.153349         2.000098        -0.732539
 H         3.318907        -0.071572        -2.372992
