19
Iteration:  2056charge 0 multiplicity 1
 C         0.167228         0.589711         0.239685
 C         1.632910         0.053169         0.186458
 C         2.245500        -0.698502         1.311709
 C         3.743466        -1.110698         1.099126
 C         4.182004        -0.443657        -0.204191
 O         3.859327         1.051379         0.177306
 C         2.657568         0.986633        -0.531933
 C         3.050019        -0.288293        -1.316720
 O         1.743738        -0.835144        -1.106335
 H         0.143666         1.412731         0.983631
 H        -0.288634         0.950197        -0.637352
 H        -0.460659        -0.225567         0.633491
 H         2.163436         0.107658         2.099500
 H         1.659039        -1.496046         1.640400
 H         4.403602        -0.880037         1.925369
 H         3.626117        -2.136787         0.879835
 H         5.161938        -0.740278        -0.542774
 H         2.438478         2.080378        -0.851349
 H         3.372612        -0.365894        -2.352086
