19
Iteration:  3007
 C         0.108434         0.577152         0.184157
 C         1.607666         0.060373         0.142073
 C         2.310623        -0.551884         1.358833
 C         3.648411        -1.148342         0.994906
 C         4.089117        -0.418239        -0.246497
 O         3.948797         0.898880         0.274463
 C         2.688008         1.049272        -0.483307
 C         3.013242        -0.208489        -1.388372
 O         1.806209        -0.890803        -1.009490
 H        -0.167064         1.194656         1.111508
 H        -0.059090         1.078627        -0.738650
 H        -0.354255        -0.391292         0.176660
 H         2.307389         0.145217         2.189977
 H         1.626282        -1.402845         1.728132
 H         4.536871        -0.972905         1.681453
 H         3.482857        -2.265662         0.907915
 H         5.170679        -0.522236        -0.513237
 H         2.558617         2.125102        -0.710889
 H         3.245932        -0.213109        -2.484224
