19
Iteration:  3958charge 0 multiplicity 1
 C         0.211976         0.628366         0.199243
 C         1.583984         0.085379         0.183721
 C         2.270361        -0.595647         1.442447
 C         3.605835        -1.245811         0.943501
 C         4.153180        -0.378562        -0.226225
 O         3.874405         0.935448         0.297840
 C         2.674381         1.015015        -0.554848
 C         3.070385        -0.126145        -1.416221
 O         1.809526        -0.950436        -1.017191
 H         0.039547         1.676906         0.506534
 H        -0.009785         0.868167        -0.897465
 H        -0.387246        -0.178509         0.596436
 H         2.428251         0.026990         2.268885
 H         1.545852        -1.312963         1.910971
 H         4.294408        -1.125107         1.770635
 H         3.524476        -2.347525         0.891151
 H         5.182751        -0.590573        -0.716822
 H         2.411747         2.021025        -0.842773
 H         3.199980        -0.167854        -2.504816
