19
Iteration:  1131charge 0 multiplicity 1
 C         0.250544         0.670958         0.289933
 C         1.612654         0.054906         0.047052
 C         2.204708        -0.575140         1.251932
 C         3.665815        -1.150424         1.067275
 C         4.152656        -0.436515        -0.224492
 O         3.816760         1.022372         0.242233
 C         2.648627         0.978845        -0.547201
 C         3.089385        -0.298708        -1.287520
 O         1.788929        -0.941767        -1.043971
 H         0.297390         1.525941         1.061470
 H        -0.227039         1.011011        -0.627056
 H        -0.288801        -0.211180         0.773029
 H         2.323085        -0.026422         2.238076
 H         1.617365        -1.461108         1.657824
 H         4.304333        -0.617577         1.744108
 H         3.800527        -2.281165         0.991979
 H         5.206782        -0.537497        -0.477689
 H         2.400048         1.880755        -0.981038
 H         3.391365        -0.277135        -2.392416
