19
Iteration:  2735charge 0 multiplicity 1
 C         0.225027         0.552273         0.162124
 C         1.600153         0.047362         0.209462
 C         2.278928        -0.637415         1.446858
 C         3.673707        -1.245558         1.017091
 C         4.171785        -0.411116        -0.208428
 O         3.904305         1.043501         0.195717
 C         2.684790         0.988335        -0.472026
 C         2.959499        -0.137267        -1.344958
 O         1.742154        -0.895266        -1.100878
 H         0.181743         1.534478         0.687050
 H         0.262341         0.735206        -1.044202
 H        -0.633775        -0.035056         0.522864
 H         2.519731         0.283093         1.991783
 H         1.632288        -1.318795         1.969128
 H         4.359911        -1.212316         1.797641
 H         3.391833        -2.224105         0.634855
 H         5.187187        -0.714699        -0.421994
 H         2.195100         1.963476        -0.696843
 H         3.444966        -0.038800        -2.350153
