19
Iteration:  3853charge 0 multiplicity 1
 C         0.201975         0.648268         0.146882
 C         1.590060        -0.018877         0.125774
 C         2.313580        -0.632908         1.454647
 C         3.710248        -1.244806         0.998948
 C         4.161392        -0.387666        -0.246375
 O         3.893961         1.014644         0.282638
 C         2.650525         1.017406        -0.529412
 C         3.079238        -0.244772        -1.301017
 O         1.686203        -0.830990        -1.078519
 H        -0.068254         1.034465         1.116715
 H         0.138056         1.364836        -0.627367
 H        -0.665223        -0.051213        -0.104322
 H         2.507343         0.243651         2.195097
 H         1.682452        -1.369846         1.902582
 H         4.566983        -1.189151         1.715038
 H         3.400477        -2.252408         0.803431
 H         5.165076        -0.628198        -0.468579
 H         2.232077         1.953058        -0.935299
 H         3.286635        -0.456983        -2.327199
