19
Iteration:  2796charge 0 multiplicity 1
 C         0.213454         0.511558         0.303361
 C         1.641781         0.068661         0.096558
 C         2.152947        -0.611310         1.362377
 C         3.602113        -1.183670         1.008390
 C         4.100122        -0.402948        -0.110290
 O         3.967210         1.015700         0.158993
 C         2.680279         1.026849        -0.578554
 C         3.121981        -0.258655        -1.370072
 O         1.778256        -0.828709        -1.072733
 H         0.238636         1.057541         1.270613
 H        -0.221486         1.209446        -0.260762
 H        -0.454707        -0.312347         0.354087
 H         2.206346         0.132286         2.184776
 H         1.417579        -1.373296         1.861034
 H         4.343896        -1.353896         1.896675
 H         3.494594        -2.251463         0.693732
 H         5.179896        -0.368146        -0.432684
 H         2.213511         1.986985        -0.789042
 H         3.519215        -0.296801        -2.380159
