19
Iteration:  3042charge 0 multiplicity 1
 C         0.211054         0.518769         0.370031
 C         1.632640         0.056236         0.105765
 C         2.195750        -0.646435         1.395481
 C         3.485423        -1.300881         0.983324
 C         4.107413        -0.290889        -0.058381
 O         4.022001         1.136191         0.092245
 C         2.804936         1.024598        -0.536756
 C         3.053256        -0.251892        -1.385212
 O         1.780629        -0.876972        -1.077167
 H        -0.061038         1.270386         1.121526
 H        -0.335115         0.814921        -0.616665
 H        -0.484302        -0.364037         0.472760
 H         2.315374         0.199346         2.157431
 H         1.565534        -1.466040         1.800987
 H         4.163122        -1.501287         1.814711
 H         3.226183        -2.255334         0.430787
 H         5.176565        -0.544941        -0.168428
 H         2.287970         1.985762        -0.971679
 H         3.440416        -0.366661        -2.449412
