19
Iteration:  3842charge 0 multiplicity 1
 C         0.217368         0.554105         0.126966
 C         1.615955         0.016659         0.150094
 C         2.226107        -0.636600         1.443078
 C         3.649870        -1.242972         0.960783
 C         4.062896        -0.386308        -0.202082
 O         3.948736         1.071228         0.217857
 C         2.715859         0.942066        -0.479967
 C         3.000709        -0.222468        -1.335827
 O         1.768406        -0.816111        -1.009651
 H         0.170890         1.173819         1.016590
 H         0.287460         1.308150        -0.608357
 H        -0.689508        -0.103933        -0.036492
 H         2.318756         0.265952         2.176474
 H         1.689214        -1.357022         2.008865
 H         4.511802        -1.287547         1.634456
 H         3.631837        -2.280526         0.688218
 H         5.015110        -0.665017        -0.562285
 H         2.374321         1.882983        -0.935846
 H         3.362152        -0.086469        -2.338432
