19
Iteration:  3820
 C         0.182895         0.543025         0.228611
 C         1.644622         0.135247         0.131425
 C         2.164948        -0.631350         1.323720
 C         3.497844        -1.251666         0.956261
 C         4.192950        -0.330223        -0.231227
 O         4.051412         1.025384         0.133449
 C         2.667001         1.115052        -0.453585
 C         3.029987        -0.187610        -1.297635
 O         1.819734        -0.973768        -0.975494
 H        -0.031341         1.244607         1.035898
 H        -0.157039         0.962522        -0.694595
 H        -0.380914        -0.432223         0.396655
 H         2.174309         0.034382         2.297546
 H         1.521707        -1.417408         1.643947
 H         4.263840        -1.464578         1.705025
 H         3.337675        -2.283691         0.759839
 H         5.145953        -0.781337        -0.311591
 H         2.326354         2.154410        -0.585798
 H         3.320024        -0.321093        -2.340841
