19
Iteration:  1587charge 0 multiplicity 1
 C         0.169272         0.491345         0.223306
 C         1.624463         0.173719         0.106246
 C         2.206333        -0.562416         1.319403
 C         3.578812        -1.135195         0.974373
 C         4.153521        -0.398369        -0.207237
 O         3.947800         0.994720         0.225835
 C         2.707672         0.970944        -0.561389
 C         3.044771        -0.255705        -1.296158
 O         1.819506        -0.931336        -0.988291
 H         0.063334         1.120516         1.157822
 H        -0.087329         1.292311        -0.418613
 H        -0.574243        -0.379446         0.140820
 H         2.247679         0.280161         2.145768
 H         1.445134        -1.361091         1.578373
 H         4.310370        -0.709948         1.795757
 H         3.559303        -2.218932         1.129199
 H         5.148038        -0.747866        -0.440382
 H         2.490441         2.015483        -0.899152
 H         3.319747        -0.493651        -2.366857
