19
Iteration:   845charge 0 multiplicity 1
 C         0.229564         0.642964         0.234338
 C         1.608142         0.017473         0.112782
 C         2.157812        -0.705104         1.322047
 C         3.659527        -1.022273         1.046886
 C         4.134476        -0.400287        -0.241662
 O         3.946972         0.977923         0.148174
 C         2.675142         0.941407        -0.510962
 C         2.960665        -0.213886        -1.360649
 O         1.854678        -0.917398        -0.951540
 H         0.142240         0.921519         1.300551
 H         0.095373         1.675084        -0.364796
 H        -0.693985        -0.022004        -0.060833
 H         1.999672        -0.257810         2.349878
 H         1.556083        -1.612216         1.286219
 H         4.138396        -0.552625         1.949190
 H         3.893792        -2.207014         1.107173
 H         5.206046        -0.494749        -0.437425
 H         2.484795         2.010628        -0.744428
 H         3.264120        -0.331540        -2.440526
