19
Iteration:   174
 C         0.116666         0.470039         0.184945
 C         1.635932         0.141598         0.095498
 C         2.115401        -0.464456         1.393192
 C         3.483622        -1.193992         0.955809
 C         4.113559        -0.378618        -0.167479
 O         3.971914         1.020315         0.131708
 C         2.822977         1.095524        -0.619089
 C         3.025771        -0.278285        -1.334608
 O         1.958003        -1.002279        -0.846251
 H         0.031411         1.356556         1.036233
 H        -0.490991         0.871050        -0.634062
 H        -0.437069        -0.411148         0.560785
 H         2.276581         0.227106         2.273077
 H         1.428308        -1.316648         1.685801
 H         4.259415        -1.276151         1.694451
 H         3.322605        -2.321214         0.665216
 H         5.136304        -0.622519        -0.305908
 H         2.513461         2.167148        -0.981880
 H         3.337910        -0.437629        -2.332430
