19
Iteration:  3093
 C         0.213814         0.599171         0.171674
 C         1.571529         0.031772         0.140044
 C         2.287393        -0.631527         1.427169
 C         3.703250        -1.173086         0.995632
 C         4.141168        -0.361730        -0.180315
 O         3.915811         0.955519         0.244294
 C         2.668338         1.052019        -0.502335
 C         2.984759        -0.228487        -1.339982
 O         1.742494        -0.904785        -1.088885
 H         0.317009         1.485775         0.844795
 H        -0.113414         1.046742        -0.713430
 H        -0.600861         0.042160         0.436195
 H         2.442577         0.110727         2.152719
 H         1.739437        -1.520446         1.836952
 H         4.452692        -1.113405         1.829830
 H         3.575477        -2.187503         0.602602
 H         5.168004        -0.682204        -0.457830
 H         2.318014         1.953591        -0.847967
 H         3.336059        -0.182489        -2.384606
