19
Iteration:  2727
 C         0.249108         0.563410         0.187648
 C         1.645571         0.012197         0.182948
 C         2.242787        -0.591064         1.407462
 C         3.651822        -1.249049         0.976986
 C         4.074879        -0.402649        -0.204318
 O         3.919470         1.053606         0.248061
 C         2.627367         0.985023        -0.448787
 C         2.996420        -0.184143        -1.356245
 O         1.787207        -0.896657        -1.124703
 H         0.324456         1.466506         0.712154
 H        -0.008611         0.844541        -0.797924
 H        -0.581422        -0.073979         0.554596
 H         2.568549         0.311615         2.097655
 H         1.561601        -1.018978         2.109692
 H         4.498182        -1.170783         1.689545
 H         3.759935        -2.345740         0.734377
 H         5.038636        -0.697042        -0.494986
 H         2.320041         1.995741        -0.792808
 H         3.366435        -0.204983        -2.407142
