19
Iteration:  2175charge 0 multiplicity 1
 C         0.169686         0.483305         0.282258
 C         1.566397         0.072191         0.143137
 C         2.231787        -0.603171         1.372341
 C         3.572674        -1.208644         0.968278
 C         4.178012        -0.410310        -0.232929
 O         3.998258         1.020578         0.185905
 C         2.682251         1.015555        -0.535217
 C         2.974762        -0.188243        -1.383100
 O         1.860521        -0.897317        -1.010211
 H         0.179925         1.420480         1.085068
 H        -0.260266         0.946279        -0.586298
 H        -0.572882        -0.333668         0.688351
 H         2.189504         0.347070         2.074960
 H         1.522352        -1.339502         1.793946
 H         4.274262        -0.775980         1.680383
 H         3.508926        -2.295477         0.958748
 H         5.218924        -0.410833        -0.506206
 H         2.317141         2.031166        -0.709587
 H         3.394733        -0.269117        -2.344821
