19
Iteration:  1607
 C         0.188070         0.631873         0.273040
 C         1.559427         0.023092         0.048492
 C         2.208007        -0.601424         1.325410
 C         3.746884        -1.127220         1.090169
 C         4.152332        -0.368576        -0.149731
 O         3.894709         1.015605         0.241255
 C         2.728521         0.979564        -0.618643
 C         3.073869        -0.289239        -1.357933
 O         1.746173        -0.929945        -1.050611
 H        -0.009532         1.100961         1.239129
 H        -0.147385         1.425186        -0.408779
 H        -0.452937        -0.309632         0.188590
 H         2.246861         0.216603         2.157106
 H         1.416022        -1.328045         1.602570
 H         4.291048        -0.993075         2.052650
 H         3.406382        -2.152270         0.835952
 H         5.237580        -0.541063        -0.410483
 H         2.469303         1.929131        -0.911274
 H         3.419177        -0.471844        -2.401009
