19
Iteration:  1286charge 0 multiplicity 1
 C         0.135388         0.636716         0.284882
 C         1.647067         0.144885         0.098385
 C         2.148640        -0.681581         1.298824
 C         3.608228        -1.168185         0.971436
 C         4.172016        -0.322973        -0.161209
 O         3.957086         1.081397         0.171679
 C         2.707589         1.002443        -0.581485
 C         3.012975        -0.304817        -1.358499
 O         1.846237        -0.996505        -0.894354
 H         0.067733         1.372704         1.150670
 H        -0.309847         1.175547        -0.552702
 H        -0.579694        -0.178914         0.399655
 H         2.043564        -0.074989         2.276774
 H         1.630452        -1.682072         1.289087
 H         4.367982        -1.080432         1.711552
 H         3.666668        -2.295829         0.847585
 H         5.235832        -0.529062        -0.419938
 H         2.509564         1.909776        -1.035627
 H         3.349367        -0.424703        -2.401786
