19
Iteration:   267charge 0 multiplicity 1
 C         0.105408         0.552584         0.144728
 C         1.632724         0.088264         0.168330
 C         2.080111        -0.670855         1.361557
 C         3.545455        -1.115176         1.043040
 C         4.162515        -0.402824        -0.197819
 O         4.103513         1.118432         0.070993
 C         2.781048         1.041882        -0.586237
 C         3.034715        -0.272443        -1.282692
 O         1.794401        -0.953955        -0.852564
 H        -0.179751         1.239582         0.905354
 H        -0.190048         0.898096        -0.884834
 H        -0.439065        -0.426731         0.297456
 H         1.955095        -0.102659         2.287541
 H         1.460207        -1.590323         1.364865
 H         4.273884        -0.979563         1.876453
 H         3.695892        -2.135997         0.823860
 H         5.277091        -0.579695        -0.358317
 H         2.526168         2.059002        -0.872467
 H         3.172254        -0.439431        -2.414365
