19
Iteration:  2433
 C         0.173676         0.467440         0.353565
 C         1.567166         0.022412         0.126695
 C         2.266626        -0.560588         1.374673
 C         3.640380        -1.222243         0.999937
 C         4.177711        -0.407360        -0.092930
 O         3.967471         1.043986         0.254308
 C         2.746491         1.013539        -0.524090
 C         3.030641        -0.173524        -1.402834
 O         1.680379        -0.862442        -1.203636
 H        -0.150949         1.288967         1.000098
 H        -0.046383         0.801261        -0.718011
 H        -0.411648        -0.549177         0.475074
 H         2.483772         0.351801         1.803610
 H         1.710164        -1.198471         2.061551
 H         4.279782        -1.170649         1.857204
 H         3.509201        -2.179921         0.706950
 H         5.228577        -0.277049        -0.472682
 H         2.420560         2.047755        -0.785850
 H         3.391310        -0.468931        -2.433377
