19
Iteration:   599charge 0 multiplicity 1
 C         0.193808         0.486310         0.101660
 C         1.599273        -0.005017         0.152544
 C         2.260238        -0.444747         1.482629
 C         3.537711        -1.150254         1.030583
 C         4.115269        -0.397208        -0.184627
 O         4.024795         1.004057         0.186295
 C         2.689227         1.002236        -0.537247
 C         2.988053        -0.214215        -1.302590
 O         1.807424        -0.930693        -1.072948
 H         0.019581         1.426503         0.740205
 H        -0.155824         0.481071        -0.869477
 H        -0.428912        -0.168684         0.703422
 H         2.671086         0.322621         2.112803
 H         1.610381        -1.056641         2.139938
 H         4.333446        -1.250285         1.728190
 H         3.342021        -2.095777         0.633284
 H         5.109459        -0.745760        -0.501848
 H         2.313812         1.997323        -0.769058
 H         3.283727        -0.185230        -2.320713
