19
Iteration:  3538
 C         0.175448         0.499021         0.354230
 C         1.643182         0.111352         0.107257
 C         2.168664        -0.672006         1.303856
 C         3.521145        -1.268086         0.940436
 C         4.191535        -0.365819        -0.131504
 O         3.967989         1.125397         0.130023
 C         2.724802         1.039468        -0.519668
 C         3.095735        -0.316643        -1.278298
 O         1.787060        -0.785993        -1.035591
 H        -0.054075         1.093291         1.215103
 H        -0.302713         1.156962        -0.340717
 H        -0.313150        -0.505222         0.364352
 H         2.328923        -0.015871         2.205823
 H         1.436720        -1.484251         1.522265
 H         4.245293        -1.254665         1.795521
 H         3.288719        -2.345396         0.621874
 H         5.264725        -0.504001        -0.276951
 H         2.453315         1.910243        -1.251433
 H         3.344260        -0.572025        -2.356335
