19
Iteration:  3702charge 0 multiplicity 1
 C         0.203764         0.572996         0.196857
 C         1.642173         0.058403         0.173001
 C         2.178884        -0.742118         1.431503
 C         3.581060        -1.295616         0.900508
 C         4.132619        -0.314752        -0.109818
 O         4.048565         1.134131         0.128439
 C         2.723396         0.995214        -0.542510
 C         3.013207        -0.275999        -1.286739
 O         1.740535        -0.787519        -1.009924
 H        -0.165382         1.046604         1.140390
 H        -0.116923         1.286975        -0.543341
 H        -0.356936        -0.452690         0.067054
 H         2.286945         0.062610         2.153300
 H         1.501510        -1.529295         1.733036
 H         4.206768        -1.362795         1.779625
 H         3.499082        -2.346814         0.531803
 H         5.084079        -0.469673        -0.518727
 H         2.358621         2.042803        -0.784426
 H         3.394855        -0.565639        -2.280551
