19
Iteration:   613charge 0 multiplicity 1
 C         0.101178         0.423506         0.146776
 C         1.629635         0.150293         0.178674
 C         2.204001        -0.446593         1.436418
 C         3.497524        -1.248213         0.960546
 C         4.115042        -0.443816        -0.240137
 O         4.033350         1.022647         0.076836
 C         2.726742         1.050173        -0.423110
 C         3.052909        -0.162678        -1.345554
 O         1.905449        -0.971959        -0.913987
 H        -0.174147         1.397906         0.576210
 H        -0.218937         0.576063        -0.996451
 H        -0.514809        -0.462611         0.572670
 H         2.346132         0.537478         2.110738
 H         1.547012        -1.102753         1.963879
 H         4.161382        -1.230639         1.810821
 H         3.088436        -2.312862         0.684899
 H         5.122131        -0.697812        -0.412969
 H         2.454362         2.052126        -0.751765
 H         3.269284        -0.214809        -2.397438
