19
Iteration:   636
 C         0.117285         0.420105         0.137354
 C         1.607727         0.175473         0.154794
 C         2.203222        -0.562968         1.462903
 C         3.526900        -1.196086         0.902012
 C         4.147992        -0.368653        -0.130431
 O         4.082960         1.054894         0.130062
 C         2.784325         1.064466        -0.613963
 C         2.968549        -0.281413        -1.278583
 O         1.814313        -0.869421        -0.871180
 H        -0.182959         1.073477         0.928575
 H        -0.401369         0.798475        -0.864421
 H        -0.181721        -0.678330         0.309482
 H         2.238490         0.248890         2.285806
 H         1.497878        -1.331148         1.740649
 H         4.142564        -1.373129         1.797472
 H         3.327888        -2.255908         0.420348
 H         5.100797        -0.708641        -0.501214
 H         2.604808         1.973481        -1.210171
 H         3.248413        -0.489604        -2.322654
