19
Iteration:  4716
 C         0.195340         0.584033         0.185681
 C         1.643333         0.039777         0.109773
 C         2.269872        -0.487619         1.374651
 C         3.620280        -1.172103         0.932122
 C         4.194121        -0.378752        -0.202643
 O         3.884168         0.944075         0.250605
 C         2.666858         0.975021        -0.514781
 C         3.016047        -0.220516        -1.308059
 O         1.756048        -0.957051        -1.034650
 H         0.209098         1.493108         0.855295
 H        -0.243741         0.932890        -0.763622
 H        -0.423769        -0.072503         0.726105
 H         2.493096         0.336974         2.137203
 H         1.710665        -1.292225         1.844861
 H         4.236980        -1.166176         1.850170
 H         3.555311        -2.258938         0.651504
 H         5.295808        -0.400735        -0.431140
 H         2.314376         2.029192        -0.624972
 H         3.350072        -0.253507        -2.296853
