19
Iteration:  2493
 C         0.211403         0.543829         0.199281
 C         1.588317        -0.009230         0.155384
 C         2.119187        -0.688698         1.375305
 C         3.544775        -1.157310         0.878996
 C         4.131024        -0.321029        -0.250611
 O         4.030079         1.112759         0.117669
 C         2.723189         1.022974        -0.443386
 C         3.010213        -0.185893        -1.301826
 O         1.848130        -0.935587        -0.888306
 H         0.189233         1.019311         1.204331
 H        -0.044181         1.188048        -0.632636
 H        -0.546952        -0.162890         0.211586
 H         2.000518        -0.243537         2.451685
 H         1.602980        -1.674992         1.625732
 H         4.295024        -1.209376         1.697520
 H         3.644537        -2.258664         0.437198
 H         5.206069        -0.436783        -0.415380
 H         2.381159         1.935256        -0.934831
 H         3.301373        -0.215546        -2.343232
