19
Iteration:  1728charge 0 multiplicity 1
 C         0.187051         0.523650         0.325176
 C         1.599159         0.108927         0.104885
 C         2.172031        -0.567916         1.283304
 C         3.466287        -1.254332         0.994771
 C         4.191957        -0.336936        -0.127654
 O         4.005341         1.052208         0.118485
 C         2.633407         1.033000        -0.580252
 C         3.069228        -0.239848        -1.322568
 O         1.897264        -0.952019        -0.960497
 H         0.275700         1.344377         1.116981
 H        -0.281216         1.017688        -0.468857
 H        -0.529875        -0.342486         0.612762
 H         2.097579         0.183306         2.174697
 H         1.446832        -1.332130         1.536685
 H         4.263655        -1.124536         1.805847
 H         3.399364        -2.354571         0.768879
 H         5.221938        -0.607103        -0.456089
 H         2.337857         1.928928        -1.079897
 H         3.517772        -0.288286        -2.344885
