19
Iteration:   145charge 0 multiplicity 1
 C         0.122771         0.480427         0.044687
 C         1.642747         0.068133         0.176525
 C         2.141315        -0.565068         1.467814
 C         3.616073        -1.190784         1.110583
 C         4.164292        -0.395660        -0.149750
 O         4.119660         1.113272         0.026745
 C         2.747469         0.969882        -0.513264
 C         2.980421        -0.274109        -1.267337
 O         1.696689        -0.863353        -0.969525
 H        -0.169868         1.117551         0.739511
 H        -0.065035         0.979934        -0.970521
 H        -0.482173        -0.459800         0.117261
 H         2.289258         0.198248         2.229189
 H         1.546793        -1.347762         1.869197
 H         4.428830        -1.108787         1.860262
 H         3.563682        -2.188064         0.883603
 H         5.224479        -0.676614        -0.462497
 H         2.341609         1.847228        -0.946836
 H         3.297655        -0.243363        -2.336545
