19
Iteration:  1353charge 0 multiplicity 1
 C         0.105495         0.520445         0.258607
 C         1.588293         0.095700         0.136153
 C         2.174787        -0.599956         1.334066
 C         3.587320        -1.140022         0.959644
 C         4.090982        -0.393470        -0.213828
 O         3.987609         1.039050         0.172764
 C         2.762090         1.033392        -0.594911
 C         3.118096        -0.298558        -1.276354
 O         1.820737        -0.868845        -0.941939
 H         0.070047         1.346838         0.946410
 H        -0.404928         0.772605        -0.723986
 H        -0.362339        -0.364233         0.647021
 H         2.305148         0.068593         2.240341
 H         1.504121        -1.487628         1.423700
 H         4.232767        -1.076364         1.784822
 H         3.688669        -2.234268         0.748025
 H         5.169033        -0.558981        -0.368012
 H         2.482151         1.935203        -1.019556
 H         3.274879        -0.503908        -2.283617
