19
Iteration:  4489charge 0 multiplicity 1
 C         0.195923         0.598056         0.283080
 C         1.679387         0.123450         0.055190
 C         2.168800        -0.688518         1.295319
 C         3.568703        -1.304371         1.060604
 C         4.135818        -0.377858        -0.169848
 O         3.951081         1.106759         0.179406
 C         2.691600         1.052243        -0.608601
 C         3.058280        -0.243214        -1.339142
 O         1.841631        -0.916190        -0.916471
 H         0.144657         1.591020         0.808263
 H        -0.316928         0.709068        -0.741143
 H        -0.499229        -0.036254         0.868618
 H         2.223265        -0.177157         2.223718
 H         1.360240        -1.462100         1.409181
 H         4.240823        -1.129290         1.880652
 H         3.658394        -2.375499         0.788969
 H         5.069293        -0.553461        -0.594312
 H         2.328531         1.985460        -1.048593
 H         3.147323        -0.289116        -2.390837
