19
Iteration:  3352
 C         0.146297         0.546658         0.137249
 C         1.616999         0.049950         0.164612
 C         2.136883        -0.648097         1.436819
 C         3.611917        -1.207007         0.922867
 C         4.114891        -0.404672        -0.171369
 O         4.061182         1.040278         0.095635
 C         2.679109         1.022456        -0.426918
 C         3.026417        -0.151242        -1.352425
 O         1.838779        -0.888901        -0.925604
 H        -0.133891         1.211244         0.908107
 H        -0.021076         1.190157        -0.711146
 H        -0.308540        -0.467522         0.143488
 H         2.118735         0.150681         2.267687
 H         1.560438        -1.512064         1.775205
 H         4.437055        -1.491408         1.608682
 H         3.239199        -2.213315         0.596306
 H         5.159796        -0.660804        -0.405528
 H         2.286898         2.060848        -0.718306
 H         3.293378         0.041905        -2.384823
