19
Iteration:  3889
 C         0.200946         0.552642         0.335086
 C         1.611943         0.040118         0.055359
 C         2.137221        -0.635241         1.365676
 C         3.468619        -1.217381         0.937792
 C         4.148453        -0.414574        -0.197152
 O         4.022942         1.099774         0.180143
 C         2.698720         1.071854        -0.582694
 C         3.123323        -0.227014        -1.298407
 O         1.822584        -0.900239        -0.974652
 H         0.201023         1.020733         1.359599
 H        -0.132498         1.328293        -0.391416
 H        -0.440386        -0.339266         0.298942
 H         2.069789        -0.016558         2.234770
 H         1.454260        -1.488361         1.628143
 H         4.112852        -1.361804         1.748276
 H         3.476679        -2.283196         0.697153
 H         5.175735        -0.537783        -0.544811
 H         2.439910         2.069103        -1.031646
 H         3.462909        -0.397330        -2.348079
