19
Iteration:   807
 C         0.192875         0.513665         0.263267
 C         1.620342         0.059904         0.111445
 C         2.212196        -0.669727         1.362104
 C         3.521262        -1.288165         1.001051
 C         4.214290        -0.278947        -0.026879
 O         3.977755         1.160020         0.053838
 C         2.706778         1.005161        -0.583358
 C         3.057549        -0.319282        -1.287806
 O         1.770668        -0.829239        -0.996849
 H         0.249279         1.235687         1.127455
 H        -0.026788         1.060152        -0.629388
 H        -0.547540        -0.205557         0.445721
 H         2.388649        -0.009494         2.209083
 H         1.451081        -1.436679         1.745620
 H         4.189221        -1.581032         1.877240
 H         3.356519        -2.100617         0.320376
 H         5.210243        -0.601154        -0.379365
 H         2.158626         1.821971        -1.076296
 H         3.310952        -0.511623        -2.303445
