19
Iteration:  1652charge 0 multiplicity 1
 C         0.173457         0.542034         0.204848
 C         1.629502         0.031269         0.120672
 C         2.158943        -0.611114         1.404194
 C         3.487980        -1.191011         0.978204
 C         4.164442        -0.310384        -0.145499
 O         4.038099         1.064743         0.143438
 C         2.685445         1.097675        -0.551467
 C         3.042091        -0.289235        -1.361068
 O         1.866722        -0.981624        -0.912957
 H         0.126743         1.495957         0.802150
 H        -0.011586         0.971056        -0.735261
 H        -0.598484        -0.210521         0.619739
 H         2.117755         0.038725         2.403355
 H         1.504637        -1.501719         1.590573
 H         4.171929        -1.245024         1.882411
 H         3.344085        -2.007855         0.267704
 H         5.161937        -0.542111        -0.543273
 H         2.246469         1.906084        -0.997271
 H         3.379972        -0.240499        -2.443703
