19
Iteration:  1130
 C         0.241769         0.665907         0.286091
 C         1.622325         0.064617         0.049253
 C         2.207339        -0.578965         1.262192
 C         3.670930        -1.167853         1.059449
 C         4.156695        -0.437452        -0.217724
 O         3.819223         1.025066         0.238073
 C         2.649582         0.982831        -0.548590
 C         3.090266        -0.295341        -1.286413
 O         1.779681        -0.937011        -1.043974
 H         0.323452         1.495690         1.026277
 H        -0.268733         0.973250        -0.637268
 H        -0.310437        -0.221321         0.741970
 H         2.303209         0.023680         2.222817
 H         1.622129        -1.441601         1.670911
 H         4.300080        -0.616568         1.781580
 H         3.819283        -2.271384         1.009811
 H         5.184937        -0.530658        -0.480557
 H         2.411295         1.892839        -0.986276
 H         3.374548        -0.295271        -2.381642
