19
Iteration:   981
 C         0.199436         0.612042         0.311446
 C         1.632353         0.056673         0.120903
 C         2.078588        -0.764304         1.290097
 C         3.603433        -1.105220         1.045976
 C         4.147923        -0.355819        -0.192780
 O         3.993803         1.072651         0.109851
 C         2.697151         1.039737        -0.535711
 C         2.989239        -0.273131        -1.377655
 O         1.863071        -0.939829        -0.938715
 H         0.324232         1.600950         1.003233
 H        -0.151728         0.887221        -0.689001
 H        -0.564094        -0.086276         0.664069
 H         2.033138        -0.408990         2.297123
 H         1.394988        -1.644822         1.142975
 H         4.307014        -0.650622         1.841690
 H         3.846647        -2.232601         1.171592
 H         5.232241        -0.659605        -0.427425
 H         2.358316         2.021797        -0.955996
 H         3.349162        -0.245782        -2.407477
