19
Iteration:  1025
 C         0.175442         0.614056         0.276651
 C         1.574514         0.000791         0.093830
 C         2.241892        -0.692101         1.317540
 C         3.693435        -1.158938         1.119464
 C         4.196193        -0.365184        -0.039017
 O         3.914691         1.118736         0.094261
 C         2.723474         0.967133        -0.602894
 C         3.014278        -0.284370        -1.303135
 O         1.692083        -0.883365        -1.107777
 H         0.189593         1.107861         1.354330
 H         0.085187         1.431187        -0.451471
 H        -0.606731        -0.141296         0.238504
 H         2.400419         0.132073         1.993352
 H         1.631217        -1.548174         1.668062
 H         4.297308        -1.212467         2.051011
 H         3.873622        -2.267798         0.876108
 H         5.318516        -0.482562        -0.233463
 H         2.348231         1.958961        -0.972817
 H         3.331965        -0.492062        -2.336949
