19
Iteration:  2882charge 0 multiplicity 1
 C         0.148095         0.541490         0.177030
 C         1.609595         0.039318         0.179512
 C         2.192208        -0.667163         1.390412
 C         3.573192        -1.246012         0.940520
 C         4.147642        -0.347385        -0.153524
 O         4.023145         1.077740         0.056970
 C         2.698391         1.081356        -0.408934
 C         3.013956        -0.265497        -1.237982
 O         1.813850        -0.858966        -1.023545
 H         0.162016         1.521703         0.840514
 H        -0.039110         0.744628        -0.986198
 H        -0.605475        -0.302667         0.466534
 H         2.344199         0.112932         2.204199
 H         1.614408        -1.572213         1.779231
 H         4.323120        -1.373168         1.816528
 H         3.372595        -2.238208         0.465326
 H         5.209950        -0.523063        -0.383247
 H         2.330246         2.053619        -0.774265
 H         3.316966        -0.326419        -2.280153
