19
Iteration:   483charge 0 multiplicity 1
 C         0.121195         0.480253         0.119073
 C         1.578015         0.163898         0.082924
 C         2.265704        -0.458025         1.362077
 C         3.654794        -1.193580         0.959854
 C         4.148947        -0.389175        -0.231500
 O         3.956250         0.931184         0.281845
 C         2.765640         1.015657        -0.529652
 C         3.045364        -0.262919        -1.304912
 O         1.731603        -0.915144        -0.923519
 H        -0.165550         1.097210         0.880613
 H        -0.144949         0.756827        -0.974363
 H        -0.370880        -0.537645         0.312126
 H         2.474612         0.412424         2.059052
 H         1.509567        -1.045997         1.827647
 H         4.224647        -0.807288         1.829469
 H         3.712654        -2.354344         1.086977
 H         5.187566        -0.516323        -0.504678
 H         2.516678         1.945511        -1.031527
 H         3.109499        -0.256711        -2.380068
