19
Iteration:  1053charge 0 multiplicity 1
 C         0.159743         0.459016         0.193523
 C         1.612775         0.076031         0.150661
 C         2.282110        -0.439643         1.414670
 C         3.599703        -1.167868         0.963806
 C         4.101828        -0.431323        -0.217394
 O         3.915337         1.008601         0.239727
 C         2.734377         1.018970        -0.558842
 C         3.037937        -0.250792        -1.312090
 O         1.776471        -0.895676        -1.009966
 H         0.020405         1.005618         1.069941
 H        -0.048740         1.060923        -0.728828
 H        -0.473252        -0.450147         0.029588
 H         2.636845         0.351862         2.145588
 H         1.641088        -1.201151         1.898233
 H         4.428349        -1.300656         1.714347
 H         3.439603        -2.204631         0.655216
 H         5.107967        -0.607625        -0.472255
 H         2.467833         1.997302        -0.902882
 H         3.380902        -0.402815        -2.365781
