19
Iteration:  2736charge 0 multiplicity 1
 C         0.223269         0.559177         0.155110
 C         1.596682         0.042727         0.211617
 C         2.283864        -0.644307         1.449724
 C         3.670657        -1.243273         1.017883
 C         4.183110        -0.413018        -0.205996
 O         3.905844         1.040594         0.187971
 C         2.689747         0.993389        -0.472415
 C         2.959248        -0.137615        -1.341249
 O         1.739068        -0.893056        -1.095657
 H         0.152064         1.512559         0.663408
 H         0.239360         0.724793        -1.015234
 H        -0.633748        -0.052068         0.512595
 H         2.518969         0.307003         2.021200
 H         1.666180        -1.355632         1.923886
 H         4.331388        -1.221959         1.821364
 H         3.351490        -2.213473         0.628453
 H         5.170919        -0.666074        -0.426052
 H         2.190305         1.967572        -0.696144
 H         3.427787        -0.024743        -2.357492
