19
Iteration:  3705
 C         0.215187         0.555969         0.195000
 C         1.647047         0.062259         0.186308
 C         2.205356        -0.725047         1.396120
 C         3.552868        -1.311178         0.876005
 C         4.134620        -0.301964        -0.091521
 O         4.046181         1.139053         0.110912
 C         2.722488         0.991940        -0.533684
 C         3.015194        -0.255900        -1.280122
 O         1.724622        -0.798820        -0.976990
 H        -0.141777         1.018002         1.122920
 H         0.001927         1.202232        -0.626889
 H        -0.444077        -0.268975         0.060527
 H         2.115213        -0.041137         2.214011
 H         1.428897        -1.495469         1.709993
 H         4.212193        -1.374075         1.773316
 H         3.612322        -2.375389         0.498174
 H         5.150211        -0.518477        -0.480557
 H         2.376450         1.967595        -0.854930
 H         3.461276        -0.514859        -2.207826
