19
Iteration:  4520charge 0 multiplicity 1
 C         0.168558         0.545691         0.253846
 C         1.618384         0.009348         0.101790
 C         2.242429        -0.581136         1.403104
 C         3.609171        -1.147227         1.077058
 C         4.220730        -0.377212        -0.182298
 O         3.975756         0.977711         0.223993
 C         2.684864         0.906760        -0.483033
 C         3.040643        -0.278883        -1.365076
 O         1.704628        -0.784059        -1.156929
 H         0.068382         1.525003         0.814111
 H        -0.246408         0.732117        -0.807655
 H        -0.479414        -0.220944         0.635821
 H         2.469610         0.341226         1.997850
 H         1.606803        -1.093697         2.105359
 H         4.358570        -0.933459         1.882876
 H         3.601590        -2.234710         0.835203
 H         5.109491        -0.682844        -0.598477
 H         2.304345         1.836272        -0.915604
 H         3.318417        -0.072793        -2.362108
