19
Iteration:  4218charge 0 multiplicity 1
 C         0.209479         0.552461         0.170188
 C         1.610407         0.032377         0.182893
 C         2.282822        -0.614706         1.510821
 C         3.577772        -1.240105         1.017422
 C         4.112163        -0.386822        -0.205788
 O         3.948797         1.083275         0.139106
 C         2.652475         1.013949        -0.520424
 C         3.045633        -0.273087        -1.319402
 O         1.816669        -0.865028        -1.090870
 H         0.019550         1.030005         1.097663
 H         0.097126         1.368973        -0.572159
 H        -0.547740        -0.104714        -0.153668
 H         2.540669         0.273146         2.047093
 H         1.590486        -1.219925         2.193746
 H         4.224379        -1.378866         1.848206
 H         3.360858        -2.338569         0.701794
 H         5.148270        -0.618132        -0.402096
 H         2.278646         1.979696        -0.852795
 H         3.169057        -0.265993        -2.382819
