19
Iteration:  4387charge 0 multiplicity 1
 C         0.125806         0.430977         0.251216
 C         1.605526         0.064812         0.163093
 C         2.179756        -0.562912         1.343187
 C         3.396199        -1.295403         1.006287
 C         4.160066        -0.378593        -0.102778
 O         4.142425         1.081345        -0.006855
 C         2.670554         1.053551        -0.520336
 C         3.103610        -0.216653        -1.270022
 O         1.841555        -0.793758        -0.984787
 H        -0.253330         0.890694         1.252465
 H        -0.204497         1.037831        -0.612807
 H        -0.430169        -0.559254         0.277676
 H         2.479490         0.267566         2.086109
 H         1.532797        -1.295603         1.802472
 H         4.149354        -1.445106         1.923001
 H         3.248116        -2.316674         0.656174
 H         5.160568        -0.676518        -0.494902
 H         2.232592         2.055170        -0.804884
 H         3.467730        -0.472727        -2.343658
