19
Iteration:   409
 C         0.164734         0.657295         0.233915
 C         1.552216         0.069873         0.072863
 C         2.158713        -0.622024         1.306953
 C         3.672436        -1.102969         1.012847
 C         4.128340        -0.363029        -0.203918
 O         3.891584         0.999070         0.256428
 C         2.769732         0.977359        -0.617118
 C         3.093790        -0.299785        -1.321627
 O         1.809570        -0.963544        -0.950378
 H         0.285012         1.303841         1.087226
 H        -0.192092         1.123669        -0.751633
 H        -0.499884        -0.157987         0.611889
 H         2.143790        -0.023221         2.210755
 H         1.386477        -1.412619         1.468368
 H         4.351193        -0.677011         1.780584
 H         3.705780        -2.141983         1.093957
 H         5.203857        -0.568916        -0.534865
 H         2.482527         1.983845        -0.964212
 H         3.449085        -0.575924        -2.377455
