19
Iteration:  4010charge 0 multiplicity 1
 C         0.125573         0.572124         0.326545
 C         1.592467         0.150498         0.101754
 C         2.166470        -0.702134         1.360129
 C         3.591474        -1.240719         0.992081
 C         4.199432        -0.428391        -0.064863
 O         4.000730         1.138158         0.084449
 C         2.723081         0.986416        -0.555387
 C         3.071223        -0.269958        -1.329674
 O         1.816827        -0.838411        -1.029756
 H         0.031659         1.140597         1.340628
 H        -0.293513         1.218096        -0.565008
 H        -0.533071        -0.307809         0.246977
 H         2.041028        -0.075540         2.274266
 H         1.389645        -1.565381         1.539021
 H         4.250704        -1.406458         1.841683
 H         3.546440        -2.361846         0.724900
 H         5.301761        -0.641050        -0.267728
 H         2.425169         1.878140        -1.178685
 H         3.145225        -0.253398        -2.472517
