19
Iteration:   407charge 0 multiplicity 1
 C         0.178384         0.657124         0.238585
 C         1.550404         0.076809         0.084304
 C         2.147648        -0.630331         1.300822
 C         3.686053        -1.077709         1.016703
 C         4.134743        -0.379905        -0.218916
 O         3.890637         0.979399         0.264469
 C         2.770013         0.984460        -0.612490
 C         3.092253        -0.281478        -1.333038
 O         1.808083        -0.980522        -0.950152
 H         0.200207         1.310503         1.047010
 H        -0.158543         1.145706        -0.799472
 H        -0.573933        -0.141913         0.631724
 H         2.091312         0.002744         2.230521
 H         1.389771        -1.376319         1.457484
 H         4.331976        -0.595276         1.776316
 H         3.748448        -2.206107         1.124747
 H         5.174994        -0.539707        -0.526187
 H         2.504157         1.959955        -0.995082
 H         3.413220        -0.508420        -2.359003
