19
Iteration:  4015charge 0 multiplicity 1
 C         0.151986         0.582157         0.323134
 C         1.597939         0.162117         0.095129
 C         2.155467        -0.674712         1.319022
 C         3.601744        -1.252479         1.044932
 C         4.188110        -0.472152        -0.088749
 O         3.972693         1.103329         0.099119
 C         2.696257         0.996578        -0.574585
 C         3.062913        -0.243235        -1.324336
 O         1.833006        -0.824145        -1.024823
 H        -0.013859         0.890622         1.311589
 H        -0.252120         1.128875        -0.457720
 H        -0.416850        -0.368574         0.281791
 H         2.222737        -0.049908         2.207952
 H         1.488340        -1.460979         1.403472
 H         4.279437        -1.200685         1.936656
 H         3.530920        -2.245759         0.678614
 H         5.188838        -0.636906        -0.413254
 H         2.409105         1.945007        -0.988862
 H         3.239095        -0.412646        -2.358441
