19
Iteration:  4651charge 0 multiplicity 1
 C         0.123387         0.517492         0.277115
 C         1.579163         0.129935         0.176230
 C         2.170791        -0.719271         1.337008
 C         3.555502        -1.157032         0.943455
 C         4.147013        -0.418257        -0.157229
 O         4.029966         1.153018         0.156049
 C         2.853624         1.077263        -0.578069
 C         3.069268        -0.339091        -1.286929
 O         1.719435        -0.863986        -1.017019
 H         0.127885         1.377217         0.905764
 H        -0.227338         0.593751        -0.742929
 H        -0.441198        -0.169108         0.790214
 H         2.339291        -0.107354         2.239085
 H         1.502177        -1.495555         1.650686
 H         4.226147        -1.130777         1.829292
 H         3.579123        -2.267891         0.740052
 H         5.142766        -0.602131        -0.443065
 H         2.351349         1.878116        -1.169177
 H         3.440802        -0.557322        -2.237029
