19
Iteration:  1568charge 0 multiplicity 1
 C         0.164171         0.492213         0.171978
 C         1.624778         0.039502         0.116222
 C         2.158255        -0.582643         1.458080
 C         3.536951        -1.220164         1.061166
 C         4.102502        -0.414944        -0.136549
 O         4.044479         1.082677         0.061267
 C         2.756276         1.084860        -0.524790
 C         3.030660        -0.228233        -1.316015
 O         1.817352        -0.888882        -0.980297
 H        -0.135749         1.096960         1.110090
 H        -0.172136         0.990765        -0.728964
 H        -0.425532        -0.427166         0.143657
 H         2.217817         0.269366         2.137716
 H         1.638571        -1.438856         1.869279
 H         4.292688        -1.404796         1.869671
 H         3.535118        -2.193217         0.630070
 H         5.098608        -0.625506        -0.480495
 H         2.389490         2.093030        -1.071734
 H         3.308857        -0.277841        -2.406957
