19
Iteration:  4393charge 0 multiplicity 1
 C         0.113693         0.405830         0.257784
 C         1.609980         0.078389         0.155444
 C         2.192607        -0.532029         1.331013
 C         3.443423        -1.263756         0.973997
 C         4.159532        -0.370708        -0.150755
 O         4.123416         1.051368         0.063903
 C         2.754729         1.066684        -0.534852
 C         3.048001        -0.246488        -1.279446
 O         1.814105        -0.824225        -0.966671
 H        -0.226981         0.841078         1.143141
 H        -0.201533         1.043176        -0.559587
 H        -0.427167        -0.542462         0.238288
 H         2.421457         0.264505         2.022117
 H         1.392160        -1.190152         1.785808
 H         3.928819        -1.193175         1.926536
 H         3.352932        -2.318747         0.609312
 H         5.177203        -0.765853        -0.396375
 H         2.282045         2.002730        -0.773761
 H         3.462540        -0.198417        -2.264869
