19
Iteration:  3235
 C         0.189136         0.554066         0.126794
 C         1.596854         0.103455         0.218415
 C         2.172487        -0.732771         1.353174
 C         3.531312        -1.220583         0.872309
 C         4.139385        -0.369454        -0.206036
 O         4.027448         1.126556         0.160402
 C         2.771034         1.043357        -0.517279
 C         3.058845        -0.240780        -1.276237
 O         1.772367        -0.884029        -0.872886
 H        -0.037687         1.522773         0.877443
 H        -0.241091         1.014973        -0.773611
 H        -0.460918        -0.282508         0.521756
 H         2.135959        -0.258017         2.308345
 H         1.692279        -1.798649         1.424595
 H         4.172240        -1.227751         1.800596
 H         3.536398        -2.284502         0.565083
 H         5.210841        -0.545358        -0.658239
 H         2.353964         1.954294        -0.805332
 H         3.351798        -0.389232        -2.381208
