19
Iteration:   671charge 0 multiplicity 1
 C         0.263363         0.639776         0.283467
 C         1.578900        -0.031471         0.029468
 C         2.198299        -0.573116         1.331431
 C         3.659383        -1.147000         1.122040
 C         4.112921        -0.402581        -0.131713
 O         3.891089         1.013509         0.158977
 C         2.646727         0.939562        -0.565240
 C         3.031292        -0.239422        -1.302817
 O         1.827139        -0.912082        -1.120455
 H         0.353968         0.883823         1.356460
 H         0.005873         1.583264        -0.352585
 H        -0.691403         0.025782         0.308735
 H         2.420927         0.380742         1.931192
 H         1.700634        -1.253062         2.051041
 H         4.357599        -0.801299         2.000994
 H         3.650411        -2.306015         1.023580
 H         5.203339        -0.622810        -0.346375
 H         2.278442         1.861299        -1.059658
 H         3.349736        -0.383411        -2.411138
