19
Iteration:  4392charge 0 multiplicity 1
 C         0.114105         0.408737         0.257591
 C         1.609822         0.072592         0.159949
 C         2.193062        -0.533763         1.331184
 C         3.431605        -1.272247         0.983966
 C         4.164332        -0.369563        -0.141842
 O         4.129103         1.055445         0.049682
 C         2.738184         1.066458        -0.533652
 C         3.057837        -0.244136        -1.280517
 O         1.820550        -0.815926        -0.967982
 H        -0.244256         0.831827         1.146944
 H        -0.198955         1.047847        -0.569329
 H        -0.414842        -0.518356         0.260759
 H         2.427383         0.237169         1.998126
 H         1.418673        -1.209996         1.777843
 H         3.924705        -1.229187         1.880352
 H         3.341331        -2.314051         0.627030
 H         5.146182        -0.741746        -0.411011
 H         2.257922         2.000331        -0.764765
 H         3.465898        -0.240300        -2.248758
