19
Iteration:  4040
 C         0.241720         0.468794         0.270796
 C         1.632464         0.070732         0.037017
 C         2.206348        -0.556722         1.401357
 C         3.582795        -1.119163         0.997919
 C         4.078335        -0.430209        -0.169109
 O         3.981704         0.983794         0.299468
 C         2.767801         1.027442        -0.527014
 C         2.995858        -0.247023        -1.385065
 O         1.744868        -0.870729        -1.079395
 H         0.107673         0.765461         1.328750
 H         0.039320         1.245170        -0.467862
 H        -0.509888        -0.299086         0.136696
 H         2.353798         0.330917         2.105667
 H         1.517043        -1.375827         1.675665
 H         4.409413        -0.707493         1.656914
 H         3.571702        -2.250921         0.868141
 H         5.102876        -0.618244        -0.470733
 H         2.680157         2.068814        -0.999940
 H         3.052984        -0.310098        -2.535860
