19
Iteration:  3500charge 0 multiplicity 1
 C         0.193197         0.534006         0.189642
 C         1.586356         0.064132         0.167525
 C         2.249971        -0.594458         1.382078
 C         3.522094        -1.214871         0.943163
 C         4.135389        -0.379990        -0.250123
 O         3.993793         1.045749         0.204897
 C         2.672818         1.001915        -0.439672
 C         3.036853        -0.232217        -1.331414
 O         1.835469        -0.881953        -1.027604
 H         0.074280         0.919485         1.227956
 H         0.001012         1.169427        -0.711993
 H        -0.504968        -0.287941         0.140532
 H         2.486630         0.232694         2.018647
 H         1.611743        -1.219784         1.982067
 H         4.201663        -1.200768         1.774280
 H         3.417536        -2.230066         0.691300
 H         5.183400        -0.570662        -0.512670
 H         2.302539         1.923595        -0.671359
 H         3.215778        -0.271506        -2.382855
