19
Iteration:   325
 C         0.198825         0.507854         0.261833
 C         1.579874         0.107134         0.038786
 C         2.215818        -0.449100         1.329159
 C         3.482908        -1.200224         0.957055
 C         4.126728        -0.391890        -0.182137
 O         3.893106         0.994236         0.264753
 C         2.720269         1.044585        -0.672482
 C         3.103391        -0.286320        -1.287990
 O         1.930126        -0.960664        -0.928320
 H        -0.000206         1.196033         1.199684
 H        -0.331855         1.026647        -0.436186
 H        -0.415246        -0.326792         0.464994
 H         2.483766         0.391316         1.963628
 H         1.441379        -1.093314         1.843922
 H         4.227905        -1.181013         1.798687
 H         3.233550        -2.296644         0.660000
 H         5.182616        -0.582569        -0.461770
 H         2.546879         2.084297        -1.070888
 H         3.345550        -0.515783        -2.346796
