19
Iteration:   944
 C         0.188109         0.491223         0.201052
 C         1.603765         0.046022         0.169798
 C         2.313971        -0.532286         1.396062
 C         3.634447        -1.305100         1.023316
 C         4.171794        -0.349889        -0.165989
 O         3.957179         1.047149         0.192940
 C         2.668020         0.918986        -0.514670
 C         3.028951        -0.233157        -1.321362
 O         1.725430        -0.804943        -1.096201
 H         0.099734         1.522999         0.515084
 H        -0.120871         0.500965        -0.880783
 H        -0.599941        -0.113306         0.712395
 H         2.440916         0.392653         1.983357
 H         1.628851        -1.086982         2.030792
 H         4.255050        -1.134337         1.825577
 H         3.420648        -2.336971         0.690502
 H         5.223286        -0.326079        -0.352164
 H         2.261530         1.847277        -0.791356
 H         3.177584        -0.345734        -2.412310
