19
Iteration:  2803charge 0 multiplicity 1
 C         0.233475         0.532716         0.333040
 C         1.620880        -0.001330         0.097886
 C         2.175749        -0.611643         1.353034
 C         3.600470        -1.191739         1.027982
 C         4.138983        -0.407748        -0.144534
 O         3.926837         1.045747         0.178095
 C         2.711832         1.021266        -0.556993
 C         3.127860        -0.266760        -1.290569
 O         1.720301        -0.814588        -1.153842
 H         0.137430         0.893402         1.359731
 H        -0.033647         1.319950        -0.534335
 H        -0.480686        -0.370755         0.431585
 H         2.391137         0.346953         1.964278
 H         1.637189        -1.304993         1.920901
 H         4.220405        -1.097082         1.895837
 H         3.494464        -2.228455         0.684605
 H         5.119599        -0.532049        -0.492742
 H         2.281187         2.008845        -0.846864
 H         3.580460        -0.404260        -2.288303
