19
Iteration:  1195charge 0 multiplicity 1
 C         0.148427         0.534898         0.187726
 C         1.580187         0.133940         0.158249
 C         2.204134        -0.685035         1.421619
 C         3.625798        -1.189588         0.973699
 C         4.177031        -0.319670        -0.154207
 O         4.018006         1.081440         0.108037
 C         2.764278         1.036545        -0.587257
 C         3.019197        -0.295079        -1.282481
 O         1.744606        -0.892457        -0.948365
 H        -0.053532         1.287858         0.948283
 H        -0.191214         0.823949        -0.785430
 H        -0.439455        -0.413569         0.284476
 H         2.162929        -0.070529         2.364491
 H         1.415625        -1.456675         1.566090
 H         4.288014        -1.317548         1.882737
 H         3.443761        -2.208071         0.623731
 H         5.205772        -0.490449        -0.416286
 H         2.472891         2.006679        -0.938820
 H         3.284592        -0.543765        -2.362763
