19
Iteration:  4235
 C         0.242481         0.538483         0.198151
 C         1.626613         0.028712         0.103366
 C         2.306892        -0.496841         1.342566
 C         3.632382        -1.282570         1.042444
 C         4.060099        -0.404443        -0.088134
 O         3.929059         1.011363         0.217980
 C         2.733353         1.030600        -0.520571
 C         2.951034        -0.182052        -1.384200
 O         1.720845        -0.930684        -1.078870
 H        -0.076143         1.024529         1.203879
 H         0.074011         1.309073        -0.575391
 H        -0.304695        -0.440871         0.030929
 H         2.590652         0.425068         1.971222
 H         1.601493        -0.994553         1.966528
 H         4.446504        -1.074658         1.806702
 H         3.560090        -2.312580         0.737095
 H         5.082287        -0.621526        -0.470062
 H         2.272567         2.071916        -0.688942
 H         3.728863        -0.238587        -2.206334
