19
Iteration:  2231charge 0 multiplicity 1
 C         0.254195         0.624368         0.292252
 C         1.608722         0.010015         0.093439
 C         2.212824        -0.712990         1.332715
 C         3.655691        -1.208679         0.986917
 C         4.116681        -0.338834        -0.149753
 O         3.873827         1.082434         0.119810
 C         2.666844         0.935294        -0.513928
 C         3.076615        -0.239093        -1.310605
 O         1.774762        -0.869599        -1.006438
 H         0.259217         1.530442         1.037673
 H        -0.103596         1.076516        -0.684528
 H        -0.452944        -0.169391         0.629553
 H         2.234186         0.186967         2.042740
 H         1.611965        -1.450586         1.839556
 H         4.409945        -1.180434         1.769606
 H         3.594676        -2.236828         0.694468
 H         5.168906        -0.435383        -0.365287
 H         2.247815         1.879874        -0.938212
 H         3.564960        -0.222984        -2.287246
