19
Iteration:  2232charge 0 multiplicity 1
 C         0.252130         0.626282         0.292662
 C         1.610764         0.011693         0.092464
 C         2.207756        -0.702667         1.333790
 C         3.660458        -1.203514         0.982948
 C         4.113022        -0.341146        -0.154139
 O         3.876699         1.078293         0.128596
 C         2.669962         0.931390        -0.511578
 C         3.065524        -0.235008        -1.305973
 O         1.779033        -0.878491        -1.010298
 H         0.277209         1.500049         1.040237
 H        -0.105595         1.071881        -0.715752
 H        -0.456238        -0.143426         0.617704
 H         2.260582         0.179630         2.047309
 H         1.657682        -1.470603         1.828591
 H         4.410894        -1.184481         1.762410
 H         3.563508        -2.214251         0.723377
 H         5.171450        -0.447685        -0.375447
 H         2.206207         1.893352        -0.943808
 H         3.578525        -0.201368        -2.314206
