19
Iteration:  4735charge 0 multiplicity 1
 C         0.165024         0.542239         0.243148
 C         1.593902         0.094800         0.151763
 C         2.240465        -0.653325         1.386334
 C         3.647886        -1.297198         1.010097
 C         4.071609        -0.391430        -0.179490
 O         3.998945         1.141465         0.145251
 C         2.668137         1.053461        -0.559993
 C         3.045968        -0.295834        -1.305073
 O         1.798059        -0.873206        -1.002672
 H        -0.107693         1.366009         0.987153
 H         0.032203         1.083358        -0.727272
 H        -0.572081        -0.320503         0.234872
 H         2.497576         0.194510         2.113862
 H         1.477998        -1.248114         1.856999
 H         4.364959        -1.322387         1.860122
 H         3.435864        -2.247947         0.640331
 H         5.164805        -0.638126        -0.396162
 H         2.335896         1.832724        -1.178099
 H         3.439451        -0.394152        -2.304762
