19
Iteration:  2222
 C         0.245354         0.589741         0.319862
 C         1.619765         0.008893         0.150241
 C         2.219954        -0.753496         1.354398
 C         3.609935        -1.280972         1.016755
 C         4.175194        -0.315156        -0.106372
 O         3.897638         1.138760         0.088046
 C         2.637681         1.013756        -0.582425
 C         3.127962        -0.292571        -1.310946
 O         1.738809        -0.836648        -1.037233
 H         0.226878         1.447764         1.037232
 H        -0.201636         1.018344        -0.686390
 H        -0.455098        -0.132006         0.694548
 H         2.316666         0.017670         2.163564
 H         1.376159        -1.325882         1.638071
 H         4.190042        -1.148563         1.921116
 H         3.805883        -2.170997         0.529931
 H         5.231632        -0.484527        -0.363898
 H         2.385077         2.079402        -1.054562
 H         3.324735        -0.549889        -2.464687
