19
Iteration:  1975charge 0 multiplicity 1
 C         0.174993         0.474107         0.258356
 C         1.631726         0.060573         0.074774
 C         2.331487        -0.443207         1.337586
 C         3.610704        -1.265688         0.934411
 C         4.136033        -0.386336        -0.180052
 O         3.879831         1.025689         0.277411
 C         2.687037         1.060002        -0.536613
 C         3.056380        -0.272766        -1.332448
 O         1.756618        -0.904271        -1.038565
 H        -0.049378         1.088115         1.155318
 H        -0.117600         1.110783        -0.665443
 H        -0.547657        -0.351595         0.473251
 H         2.447996         0.408524         2.042737
 H         1.566008        -1.240005         1.768177
 H         4.343660        -1.119500         1.743892
 H         3.415199        -2.361499         0.975887
 H         5.158391        -0.740074        -0.533179
 H         2.687204         2.142217        -0.746636
 H         3.385659        -0.373802        -2.381766
