19
Iteration:  4997charge 0 multiplicity 1
 C         0.190126         0.481083         0.224321
 C         1.634429         0.050699         0.126899
 C         2.277150        -0.459076         1.413966
 C         3.609772        -1.146444         0.977814
 C         4.111212        -0.418751        -0.233372
 O         3.911244         0.909214         0.248866
 C         2.671315         1.026268        -0.539802
 C         3.007579        -0.181322        -1.398348
 O         1.782457        -0.897840        -1.041244
 H        -0.007369         0.541848         1.303874
 H         0.313533         1.482608        -0.117654
 H        -0.394412        -0.284695        -0.219371
 H         2.537326         0.266393         2.303901
 H         1.762961        -1.205581         1.960129
 H         4.290625        -0.752531         1.851270
 H         3.468380        -2.285814         0.945347
 H         5.128882        -0.740994        -0.576122
 H         2.431928         2.042615        -0.926244
 H         3.359501        -0.252601        -2.381565
