19
Iteration:   815
 C         0.215204         0.585627         0.255606
 C         1.595410         0.065961         0.136976
 C         2.165822        -0.729139         1.388302
 C         3.559807        -1.250041         0.979088
 C         4.148781        -0.342339        -0.060715
 O         3.987056         1.220580         0.021623
 C         2.757210         0.985785        -0.572817
 C         3.025049        -0.276552        -1.261853
 O         1.790822        -0.908748        -0.995655
 H         0.086272         1.158873         1.195589
 H        -0.090034         1.221254        -0.498840
 H        -0.479285        -0.231282         0.333218
 H         2.303194        -0.093117         2.222370
 H         1.384558        -1.491274         1.526172
 H         4.115844        -1.518722         1.822387
 H         3.656135        -2.220961         0.522650
 H         5.237670        -0.431791        -0.309828
 H         2.329814         1.866485        -0.994116
 H         3.419753        -0.485925        -2.285272
