19
Iteration:  2167
 C         0.142193         0.531687         0.229873
 C         1.605937        -0.006869         0.172624
 C         2.272924        -0.551838         1.420524
 C         3.642841        -1.196878         1.015310
 C         4.089231        -0.428956        -0.250791
 O         3.946990         1.021755         0.202706
 C         2.722691         1.008635        -0.475355
 C         2.973258        -0.150098        -1.383167
 O         1.831771        -0.917924        -1.057534
 H         0.061859         1.217761         1.035435
 H        -0.242185         0.870851        -0.760043
 H        -0.537278        -0.238143         0.507901
 H         2.354419         0.383665         1.993376
 H         1.586539        -1.218299         1.871741
 H         4.459624        -1.052195         1.741838
 H         3.630115        -2.232468         0.804831
 H         5.116716        -0.593388        -0.595849
 H         2.541828         2.100594        -0.824072
 H         3.195238        -0.145794        -2.517537
