19
Iteration:  4351
 C         0.238149         0.593385         0.245989
 C         1.617769         0.064173         0.132881
 C         2.217697        -0.601588         1.322395
 C         3.561636        -1.212283         0.947024
 C         4.120065        -0.338898        -0.167956
 O         3.945950         1.042946         0.240720
 C         2.692057         1.005963        -0.546476
 C         3.057110        -0.270545        -1.354455
 O         1.796184        -0.918009        -0.989427
 H         0.156967         1.376051         0.981342
 H         0.033708         1.034039        -0.743877
 H        -0.483915        -0.269027         0.370692
 H         2.359932         0.160593         2.141896
 H         1.521660        -1.357041         1.789683
 H         4.193632        -1.125854         1.911141
 H         3.390854        -2.277181         0.611718
 H         5.215208        -0.540303        -0.401153
 H         2.454374         1.988831        -0.933013
 H         3.245606        -0.643909        -2.372483
