19
Iteration:   861
 C         0.222601         0.607022         0.220857
 C         1.592306         0.043306         0.115733
 C         2.212231        -0.703378         1.349091
 C         3.729907        -1.057843         1.116413
 C         4.168215        -0.433780        -0.210481
 O         3.944187         0.996566         0.195473
 C         2.691480         1.026377        -0.489786
 C         3.013826        -0.255704        -1.359861
 O         1.679400        -0.900720        -1.088732
 H        -0.124358         0.935763         1.225735
 H         0.128667         1.430844        -0.382981
 H        -0.424609        -0.121631        -0.139987
 H         2.168686         0.078975         2.066467
 H         1.619161        -1.602223         1.664549
 H         4.499757        -0.681576         1.807886
 H         3.983868        -2.036953         1.302627
 H         5.172548        -0.706076        -0.611757
 H         2.208006         1.934569        -0.803974
 H         3.235644        -0.254436        -2.415214
