19
Iteration:   189
 C         0.183231         0.538001         0.261253
 C         1.614595         0.078511         0.041012
 C         2.233404        -0.473196         1.380751
 C         3.519100        -1.241160         1.062186
 C         4.137717        -0.403037        -0.136203
 O         3.911402         1.087556         0.224149
 C         2.672979         0.974242        -0.650933
 C         3.137527        -0.275497        -1.342317
 O         1.828907        -0.946443        -1.003452
 H         0.161929         1.283031         0.917344
 H        -0.191963         0.882529        -0.763590
 H        -0.396072        -0.322078         0.682408
 H         2.504961         0.395346         1.995512
 H         1.496678        -1.045433         1.941715
 H         4.203687        -1.266250         1.922840
 H         3.317587        -2.182997         0.717383
 H         5.214064        -0.557626        -0.472313
 H         2.474975         1.900551        -1.125826
 H         3.401812        -0.493088        -2.406974
