19
Iteration:  3998charge 0 multiplicity 1
 C         0.128339         0.585551         0.274759
 C         1.592951         0.001057         0.182261
 C         2.130547        -0.727758         1.390995
 C         3.521120        -1.244080         0.962065
 C         4.198473        -0.257087        -0.139940
 O         4.058617         1.133977         0.096070
 C         2.799505         1.002858        -0.583274
 C         3.084174        -0.268590        -1.280350
 O         1.731280        -0.902005        -1.025296
 H         0.090671         1.340542         1.154811
 H        -0.069559         1.271855        -0.637741
 H        -0.655243        -0.150707         0.521794
 H         2.254539        -0.076284         2.312721
 H         1.465528        -1.657080         1.614429
 H         4.177424        -1.305201         1.834860
 H         3.364240        -2.167903         0.302956
 H         5.291000        -0.517048        -0.203956
 H         2.390234         1.951395        -1.077142
 H         3.609357        -0.275742        -2.307651
