19
Iteration:   264
 C         0.108974         0.574811         0.148237
 C         1.648138         0.097065         0.161987
 C         2.060717        -0.676474         1.345859
 C         3.556052        -1.101509         1.032650
 C         4.172639        -0.389237        -0.218140
 O         4.107206         1.098435         0.091350
 C         2.764155         1.067565        -0.587435
 C         3.027794        -0.289312        -1.300277
 O         1.809869        -0.970862        -0.827809
 H        -0.164557         1.202492         0.926813
 H        -0.208301         0.927410        -0.923328
 H        -0.312905        -0.465160         0.377517
 H         1.816287        -0.182311         2.328449
 H         1.502222        -1.591585         1.298245
 H         4.174962        -0.910844         1.881389
 H         3.610873        -2.134059         0.815120
 H         5.225203        -0.563740        -0.401712
 H         2.449863         2.053690        -0.852736
 H         3.195723        -0.540384        -2.329668
