19
Iteration:  4985
 C         0.173539         0.524125         0.224156
 C         1.617562         0.058588         0.133488
 C         2.312075        -0.525224         1.367748
 C         3.646809        -1.178174         1.008826
 C         4.117516        -0.429678        -0.267869
 O         3.946323         1.052324         0.285462
 C         2.741434         0.991512        -0.529860
 C         2.995691        -0.265025        -1.329113
 O         1.738975        -0.910519        -1.027914
 H        -0.301941         0.656143         1.183074
 H        -0.066665         1.378369        -0.345572
 H        -0.472416        -0.092166        -0.362187
 H         2.446377         0.440065         2.013213
 H         1.584130        -1.206335         1.791139
 H         4.454543        -1.212925         1.828841
 H         3.531017        -2.268476         0.748894
 H         5.126750        -0.549556        -0.714519
 H         2.298406         1.991645        -0.833619
 H         3.196683        -0.294697        -2.385939
