19
Iteration:  2070charge 0 multiplicity 1
 C         0.198374         0.530752         0.330474
 C         1.567350         0.010473         0.011060
 C         2.277210        -0.628928         1.399213
 C         3.741222        -1.166183         1.101122
 C         4.063027        -0.370486        -0.107350
 O         3.936816         1.038423         0.169431
 C         2.713145         0.966237        -0.552544
 C         3.018608        -0.277892        -1.290763
 O         1.708203        -0.799306        -1.178821
 H         0.239149         1.262960         1.074846
 H        -0.097173         1.013984        -0.713134
 H        -0.579445        -0.149885         0.546159
 H         2.310270         0.098041         2.209040
 H         1.646736        -1.470025         1.702207
 H         4.495257        -0.897037         1.924194
 H         3.890982        -2.271595         0.975412
 H         5.113415        -0.428873        -0.513531
 H         2.204698         1.842421        -1.086223
 H         3.518493        -0.366216        -2.340638
