19
Iteration:  4374
 C         0.157877         0.475674         0.239108
 C         1.596370         0.092374         0.108823
 C         2.151704        -0.633949         1.532088
 C         3.535495        -1.293969         1.001949
 C         4.104930        -0.430308        -0.114688
 O         4.065861         1.155785        -0.009088
 C         2.714436         1.052881        -0.536354
 C         3.103320        -0.200958        -1.251875
 O         1.815655        -0.854062        -1.053205
 H         0.102974         1.117021         1.147958
 H        -0.205184         1.077158        -0.606671
 H        -0.476749        -0.492891         0.257604
 H         2.272330         0.207134         2.334560
 H         1.353104        -1.296418         1.946125
 H         4.267821        -1.760303         1.834627
 H         3.111949        -2.077777         0.323602
 H         5.198705        -0.775246        -0.228592
 H         2.448521         1.973422        -1.085822
 H         3.474533        -0.305513        -2.352007
