19
Iteration:  3268charge 0 multiplicity 1
 C         0.237243         0.576631         0.252801
 C         1.601977         0.002517         0.081146
 C         2.244137        -0.639026         1.342340
 C         3.583686        -1.256988         1.012061
 C         4.127496        -0.412101        -0.103823
 O         3.931171         1.089405         0.150267
 C         2.684124         1.027878        -0.497645
 C         3.046894        -0.194100        -1.324072
 O         1.795524        -0.878163        -1.093494
 H         0.442619         1.398799         1.145774
 H        -0.251339         1.043949        -0.651681
 H        -0.514946        -0.041691         0.815193
 H         2.277839         0.039983         2.175326
 H         1.627326        -1.529198         1.736841
 H         4.197043        -1.292329         1.951775
 H         3.298242        -2.292801         0.751943
 H         5.129553        -0.457865        -0.656493
 H         2.290414         1.996497        -0.673410
 H         3.585215        -0.275695        -2.337127
