19
Iteration:   603charge 0 multiplicity 1
 C         0.158411         0.486538         0.117625
 C         1.606857         0.048848         0.170174
 C         2.243503        -0.443600         1.486514
 C         3.515896        -1.170764         0.998114
 C         4.122905        -0.420394        -0.190851
 O         4.030353         1.007831         0.143910
 C         2.699927         1.013250        -0.476774
 C         2.979890        -0.198083        -1.332762
 O         1.860258        -0.953363        -1.035327
 H        -0.057109         1.408791         0.653675
 H        -0.236601         0.462032        -0.997833
 H        -0.397360        -0.355042         0.686946
 H         2.565685         0.506863         2.126465
 H         1.569731        -1.047964         2.074925
 H         4.302545        -1.307961         1.766160
 H         3.298777        -2.286508         0.674398
 H         5.102366        -0.719203        -0.507544
 H         2.368618         2.017226        -0.777049
 H         3.324796        -0.114180        -2.374403
