19
Iteration:  3183charge 0 multiplicity 1
 C         0.233636         0.442596         0.327142
 C         1.653326         0.033049         0.058530
 C         2.254343        -0.504958         1.421880
 C         3.615429        -1.265725         1.040708
 C         4.057720        -0.408963        -0.141266
 O         3.915167         1.069733         0.215384
 C         2.716143         0.990648        -0.511713
 C         3.075941        -0.251281        -1.322140
 O         1.734922        -0.812591        -1.153777
 H         0.326304         1.075626         1.176083
 H        -0.024637         1.135095        -0.519399
 H        -0.576217        -0.195397         0.144457
 H         2.494507         0.497026         1.818755
 H         1.537679        -1.254758         1.841548
 H         4.329699        -1.521146         1.859797
 H         3.275979        -2.161808         0.392703
 H         5.052533        -0.500239        -0.640837
 H         2.374315         2.027174        -0.835916
 H         3.542850        -0.413036        -2.370504
