19
Iteration:  2600
 C         0.235649         0.499991         0.229514
 C         1.648246         0.107687         0.139473
 C         2.232296        -0.642918         1.406717
 C         3.585585        -1.280585         0.908480
 C         4.158267        -0.359007        -0.129875
 O         3.946218         1.129083         0.148855
 C         2.679305         1.035418        -0.505789
 C         3.022498        -0.254241        -1.296402
 O         1.734863        -0.880298        -1.023184
 H        -0.072494         1.371641         0.959870
 H        -0.014505         0.989932        -0.750020
 H        -0.322671        -0.487347         0.393051
 H         2.467647         0.025800         2.193240
 H         1.596645        -1.511421         1.755257
 H         4.283960        -1.386169         1.743753
 H         3.507062        -2.150313         0.332362
 H         5.296727        -0.614540        -0.256823
 H         2.226800         1.963461        -0.789430
 H         3.404429        -0.225637        -2.289363
