19
Iteration:  4994charge 0 multiplicity 1
 C         0.188759         0.481702         0.226317
 C         1.630653         0.054061         0.132392
 C         2.287630        -0.447204         1.394142
 C         3.619109        -1.158785         1.006982
 C         4.118516        -0.419164        -0.256027
 O         3.918706         0.946551         0.283579
 C         2.702399         1.007386        -0.551623
 C         3.006454        -0.197527        -1.378072
 O         1.761762        -0.908194        -1.043035
 H        -0.111927         0.639708         1.253120
 H         0.245596         1.455067        -0.152551
 H        -0.433509        -0.239391        -0.297251
 H         2.571771         0.210489         2.232340
 H         1.789938        -1.287739         1.949473
 H         4.234499        -0.854606         1.843204
 H         3.503748        -2.221347         0.860524
 H         5.064761        -0.739935        -0.715986
 H         2.318220         2.065792        -0.907802
 H         3.299430        -0.263936        -2.475438
