19
Iteration:  1982charge 0 multiplicity 1
 C         0.187567         0.496068         0.239120
 C         1.622576         0.046148         0.057694
 C         2.331871        -0.522428         1.381796
 C         3.607529        -1.243812         0.942062
 C         4.132846        -0.434755        -0.166556
 O         3.911403         1.067116         0.267323
 C         2.686485         1.034426        -0.551155
 C         3.012912        -0.244454        -1.266187
 O         1.748119        -0.877989        -1.044694
 H         0.045719         1.216332         1.018805
 H        -0.187526         0.939349        -0.755868
 H        -0.449978        -0.359215         0.295031
 H         2.522145         0.412094         1.903386
 H         1.777840        -1.150785         2.059437
 H         4.294604        -1.212459         1.827068
 H         3.430965        -2.272859         0.517838
 H         5.111110        -0.450367        -0.625073
 H         2.509514         2.059071        -0.830603
 H         3.423830        -0.554852        -2.282727
