19
Iteration:   388charge 0 multiplicity 1
 C         0.200093         0.680838         0.146207
 C         1.620543         0.065427         0.126722
 C         2.194716        -0.667400         1.350332
 C         3.662862        -1.041384         1.161646
 C         4.144876        -0.454162        -0.224432
 O         3.947329         0.985282         0.153108
 C         2.656020         0.973326        -0.480225
 C         2.945180        -0.239387        -1.333855
 O         1.835240        -0.963049        -1.037142
 H         0.273605         1.528095         0.908177
 H         0.038709         1.031714        -0.869237
 H        -0.442210        -0.165490         0.331531
 H         2.065014        -0.159771         2.281504
 H         1.643994        -1.659805         1.394450
 H         4.330336        -0.512547         1.865648
 H         3.804332        -2.043627         1.395905
 H         5.180735        -0.832337        -0.574590
 H         2.299702         2.005307        -0.757078
 H         3.207572        -0.133231        -2.462180
