19
Iteration:  3913charge 0 multiplicity 1
 C         0.164697         0.494443         0.322323
 C         1.652851         0.083428         0.192373
 C         2.126904        -0.681410         1.373728
 C         3.472253        -1.214269         0.994798
 C         4.137209        -0.409920        -0.093552
 O         4.086037         1.077752         0.084076
 C         2.714943         1.067402        -0.560093
 C         3.062872        -0.199935        -1.316093
 O         1.828205        -0.857670        -1.093334
 H         0.014858         1.319119         1.069071
 H        -0.262209         0.891483        -0.677115
 H        -0.301870        -0.426756         0.622840
 H         2.201732         0.045797         2.131610
 H         1.228520        -1.241348         1.760036
 H         4.174241        -1.597370         1.703142
 H         3.423358        -2.241171         0.512142
 H         5.290652        -0.496622        -0.173609
 H         2.361172         2.011629        -1.017429
 H         3.284200        -0.231656        -2.419861
