19
Iteration:  1370
 C         0.134412         0.464996         0.285235
 C         1.614995         0.196044         0.082245
 C         2.187067        -0.510202         1.327125
 C         3.501583        -1.276146         0.918624
 C         4.215954        -0.373385        -0.131470
 O         3.967950         1.064034         0.153421
 C         2.729702         1.080979        -0.588376
 C         3.048256        -0.257267        -1.333690
 O         1.882262        -0.984153        -0.870896
 H        -0.030247         1.299563         1.072750
 H        -0.302689         0.852011        -0.584179
 H        -0.295567        -0.536227         0.606071
 H         2.215342         0.198907         2.146296
 H         1.397221        -1.225069         1.539179
 H         4.123858        -1.443196         1.897133
 H         3.147735        -2.232252         0.502998
 H         5.213885        -0.670148        -0.455927
 H         2.361084         2.118362        -1.155894
 H         3.405930        -0.311202        -2.473341
