19
Iteration:  2512charge 0 multiplicity 1
 C         0.175831         0.585570         0.170768
 C         1.630021         0.070872         0.205382
 C         2.281948        -0.777105         1.349746
 C         3.685329        -1.223288         1.033302
 C         4.148088        -0.364218        -0.144379
 O         3.983791         1.106147         0.103503
 C         2.610311         1.008878        -0.457916
 C         2.973695        -0.198253        -1.282667
 O         1.765871        -0.891311        -1.064237
 H        -0.098794         1.440575         0.936393
 H         0.147799         1.075080        -0.787565
 H        -0.623000        -0.229680         0.092622
 H         2.345664        -0.095345         2.187235
 H         1.548367        -1.515009         1.821052
 H         4.355620        -1.150597         1.885405
 H         3.705854        -2.236560         0.736038
 H         5.103270        -0.529495        -0.774140
 H         2.250458         1.986217        -0.578738
 H         3.224476        -0.184531        -2.310019
