19
Iteration:  4581
 C         0.124095         0.589637         0.187916
 C         1.611980         0.139104         0.135346
 C         2.292065        -0.628478         1.361678
 C         3.619598        -1.287179         0.938130
 C         4.237122        -0.422107        -0.148727
 O         3.905663         1.140804         0.128686
 C         2.695497         1.029521        -0.574336
 C         3.006897        -0.296674        -1.263653
 O         1.789360        -0.889158        -0.903601
 H        -0.132693         0.903184         1.212311
 H         0.000554         1.327737        -0.591303
 H        -0.626381        -0.237832        -0.062220
 H         2.369049         0.126788         2.217718
 H         1.533224        -1.415463         1.670248
 H         4.140998        -1.615227         1.867849
 H         3.366827        -2.250111         0.516631
 H         5.347997        -0.777018        -0.370425
 H         2.516842         2.034778        -1.006421
 H         3.333128        -0.375107        -2.361089
