19
Iteration:  4639
 C         0.159462         0.534442         0.299248
 C         1.605071         0.114459         0.110229
 C         2.170888        -0.638714         1.347987
 C         3.607335        -1.199312         1.028542
 C         4.102174        -0.414790        -0.189368
 O         4.010572         1.016744         0.149092
 C         2.701595         1.069899        -0.584925
 C         3.076543        -0.233517        -1.305266
 O         1.783586        -0.902245        -1.030478
 H         0.040733         1.375943         0.970504
 H        -0.324884         0.944467        -0.562214
 H        -0.383291        -0.279341         0.622319
 H         2.202726         0.053408         2.247401
 H         1.503275        -1.433224         1.552428
 H         4.280174        -0.756255         1.789142
 H         3.741745        -2.269676         0.890375
 H         5.126103        -0.747382        -0.406930
 H         2.674604         2.107754        -0.870592
 H         3.371175        -0.391586        -2.284312
