19
Iteration:  3074
 C         0.165132         0.619288         0.336100
 C         1.628842         0.086508         0.073351
 C         2.191542        -0.612162         1.268298
 C         3.554423        -1.286917         0.924848
 C         4.152967        -0.371118        -0.224329
 O         3.927930         1.091694         0.245121
 C         2.715555         1.004986        -0.524643
 C         3.066041        -0.239852        -1.324454
 O         1.855571        -0.950836        -0.955349
 H         0.039244         1.505712         1.006426
 H        -0.205827         1.032744        -0.677894
 H        -0.360626        -0.329080         0.667250
 H         2.268674         0.170745         2.093184
 H         1.490272        -1.419563         1.659253
 H         4.182522        -1.116178         1.825747
 H         3.502603        -2.399513         0.676870
 H         5.224252        -0.475944        -0.526103
 H         2.332895         2.021895        -0.964294
 H         3.314611        -0.426986        -2.416705
