19
Iteration:    52charge 0 multiplicity 1
 C         0.229735         0.525967         0.130403
 C         1.638931         0.068502         0.158399
 C         2.213928        -0.585635         1.410176
 C         3.533659        -1.221518         1.069585
 C         4.160301        -0.410906        -0.092297
 O         4.024928         1.154867         0.090732
 C         2.733238         0.963423        -0.550457
 C         3.028714        -0.314542        -1.321322
 O         1.720097        -0.871255        -1.005279
 H         0.025911         1.644132         0.500722
 H        -0.031023         0.501432        -0.897463
 H        -0.443700        -0.122336         0.654538
 H         2.392958         0.350886         2.053867
 H         1.392427        -1.258257         1.897281
 H         4.186195        -1.319386         1.948473
 H         3.355431        -2.325581         0.709434
 H         5.197687        -0.642283        -0.283658
 H         2.185832         1.979960        -0.911153
 H         3.374998        -0.420130        -2.365777
