19
Iteration:  2929
 C         0.210528         0.543330         0.342281
 C         1.644436         0.077351         0.063683
 C         2.233851        -0.568798         1.258634
 C         3.571085        -1.163208         0.980338
 C         4.096234        -0.431553        -0.123467
 O         3.899920         0.994827         0.242039
 C         2.654917         1.035533        -0.576005
 C         3.084449        -0.239485        -1.348805
 O         1.830768        -0.887335        -1.033161
 H         0.366157         1.404979         1.152465
 H        -0.251319         0.892487        -0.531161
 H        -0.436659        -0.255726         0.793975
 H         2.432482         0.104663         2.065340
 H         1.404645        -1.406398         1.486490
 H         4.237900        -1.072732         1.971587
 H         3.514528        -2.235566         0.612181
 H         5.107773        -0.557471        -0.631281
 H         2.418843         2.071082        -0.796639
 H         3.582429        -0.476705        -2.299357
