19
Iteration:   880
 C         0.147929         0.500482         0.213790
 C         1.600574         0.024315         0.155222
 C         2.264425        -0.597632         1.395701
 C         3.676954        -1.209464         1.059859
 C         4.087165        -0.369422        -0.087382
 O         4.001373         1.082502         0.103991
 C         2.715077         1.012627        -0.549607
 C         3.017058        -0.303838        -1.281319
 O         1.722262        -0.793784        -1.112122
 H         0.005244         0.905098         1.304130
 H        -0.027424         1.304204        -0.525872
 H        -0.550017        -0.363091         0.114647
 H         2.284243         0.130303         2.189450
 H         1.686769        -1.464089         1.739004
 H         4.407269        -1.102458         1.875818
 H         3.543892        -2.343026         0.761815
 H         5.095801        -0.643198        -0.474522
 H         2.411552         1.870806        -1.100167
 H         3.468354        -0.365830        -2.305342
