19
Iteration:   968
 C         0.180233         0.601851         0.197040
 C         1.572645         0.035671         0.141105
 C         2.209530        -0.743181         1.364306
 C         3.702228        -1.140464         1.095182
 C         4.106507        -0.366923        -0.189838
 O         4.010763         1.065390         0.127600
 C         2.708777         1.030591        -0.549333
 C         3.043394        -0.218785        -1.272350
 O         1.738878        -0.905822        -1.041131
 H         0.206195         1.598018         0.814886
 H        -0.319368         0.795648        -0.727536
 H        -0.488933        -0.047530         0.784545
 H         1.924649        -0.175123         2.195661
 H         1.672062        -1.709467         1.550692
 H         4.273659        -0.859852         1.919952
 H         3.712003        -2.240810         0.773038
 H         5.106277        -0.574446        -0.631818
 H         2.369922         1.970522        -0.858881
 H         3.287999        -0.466604        -2.311446
