19
Iteration:  2744
 C         0.194704         0.590514         0.114338
 C         1.606133        -0.017679         0.211686
 C         2.315542        -0.636987         1.443927
 C         3.619961        -1.222655         0.987888
 C         4.196948        -0.394350        -0.168687
 O         3.956238         1.025147         0.140349
 C         2.681461         1.031080        -0.450534
 C         2.980150        -0.181004        -1.316640
 O         1.740676        -0.861699        -1.038801
 H        -0.048631         1.579028         0.637786
 H        -0.187192         0.758603        -1.020440
 H        -0.505995        -0.196903         0.402247
 H         2.359871         0.050147         2.246861
 H         1.784794        -1.568708         1.786995
 H         4.219259        -1.393521         1.895228
 H         3.348793        -2.220742         0.630472
 H         5.285238        -0.361172        -0.564403
 H         2.319136         2.022119        -0.770176
 H         3.153130        -0.084483        -2.402237
