19
Iteration:   821
 C         0.215073         0.642814         0.274578
 C         1.630129         0.055077         0.176144
 C         2.114097        -0.753297         1.360195
 C         3.605467        -1.228697         0.968947
 C         4.111085        -0.370512        -0.123794
 O         3.997646         1.222306         0.036167
 C         2.727872         1.010824        -0.577210
 C         3.044615        -0.264673        -1.257963
 O         1.798112        -0.971951        -0.988642
 H         0.012081         1.099563         1.242781
 H        -0.162408         1.403547        -0.580365
 H        -0.446419        -0.307617         0.183689
 H         2.106765        -0.090511         2.310807
 H         1.453604        -1.613572         1.545397
 H         4.232732        -1.194566         1.968600
 H         3.575853        -2.334395         0.573358
 H         5.168547        -0.492733        -0.259327
 H         2.468007         2.030362        -1.023252
 H         3.497099        -0.373110        -2.248899
