19
Iteration:  4545
 C         0.172046         0.500038         0.262248
 C         1.616061         0.037307         0.078171
 C         2.243614        -0.557258         1.400684
 C         3.530652        -1.208751         1.014914
 C         4.082635        -0.451881        -0.140426
 O         4.000729         1.042133         0.107171
 C         2.736705         1.135950        -0.524542
 C         3.009554        -0.221207        -1.272216
 O         1.844839        -0.912476        -1.041348
 H         0.084110         1.235288         1.087841
 H        -0.198690         1.094058        -0.654760
 H        -0.467774        -0.443496         0.391430
 H         2.402763         0.246502         2.095572
 H         1.517543        -1.322996         1.880107
 H         4.264911        -1.232080         1.777077
 H         3.361555        -2.248074         0.611097
 H         5.032702        -0.844514        -0.583455
 H         2.368878         2.135875        -0.833036
 H         3.429264        -0.277679        -2.324970
