19
Iteration:   919charge 0 multiplicity 1
 C         0.175786         0.428945         0.286897
 C         1.612477         0.147593         0.036424
 C         2.288124        -0.464622         1.410375
 C         3.456013        -1.231842         0.844267
 C         4.030217        -0.435918        -0.208020
 O         3.952614         1.040678         0.218700
 C         2.735972         1.038245        -0.570095
 C         3.050790        -0.178868        -1.258624
 O         1.945568        -0.988852        -0.947110
 H         0.153114         1.272660         0.867016
 H        -0.426385         0.649737        -0.655780
 H        -0.407930        -0.383296         0.735787
 H         2.440524         0.398645         2.151581
 H         1.534034        -1.068627         1.921458
 H         4.294049        -1.341201         1.571903
 H         3.047059        -2.025335         0.342722
 H         5.080619        -0.569805        -0.303199
 H         2.478182         2.122518        -0.833262
 H         3.265983        -0.303172        -2.309520
