19
Iteration:  4979
 C         0.140079         0.571233         0.204021
 C         1.614472         0.058028         0.118297
 C         2.296092        -0.584356         1.367923
 C         3.688906        -1.220511         0.958157
 C         4.131526        -0.417962        -0.214608
 O         3.962808         1.101868         0.211353
 C         2.719983         1.006939        -0.479143
 C         2.982143        -0.300896        -1.289997
 O         1.740804        -0.895276        -0.998996
 H        -0.278946         0.582316         1.250435
 H        -0.086587         1.521220        -0.448958
 H        -0.431970        -0.310690        -0.275607
 H         2.319853         0.335574         1.892497
 H         1.465808        -1.152555         1.846275
 H         4.493267        -1.301297         1.674705
 H         3.421731        -2.252281         0.702861
 H         5.202796        -0.438748        -0.437871
 H         2.461018         1.964190        -0.891686
 H         3.313675        -0.375614        -2.354473
