19
Iteration:   251
 C         0.246656         0.558884         0.173385
 C         1.600048         0.212003         0.111748
 C         2.060094        -0.686170         1.313043
 C         3.584727        -1.048116         1.020536
 C         4.119913        -0.330084        -0.204118
 O         3.999607         1.012335         0.110958
 C         2.703247         1.037598        -0.519546
 C         3.026435        -0.348112        -1.313433
 O         1.911005        -0.977406        -0.846355
 H         0.140917         1.432098         0.967679
 H        -0.240620         0.990763        -0.729205
 H        -0.500705        -0.247021         0.401167
 H         1.965803        -0.353148         2.391396
 H         1.413431        -1.544782         1.139565
 H         4.222048        -0.778481         1.852791
 H         3.620701        -2.223346         0.991594
 H         4.984235        -0.750630        -0.618206
 H         2.384189         1.985346        -1.009614
 H         3.370337        -0.592363        -2.268868
