19
Iteration:  2467charge 0 multiplicity 1
 C         0.191901         0.512922         0.339283
 C         1.625448         0.098222         0.131545
 C         2.215702        -0.580268         1.319214
 C         3.573845        -1.264299         0.956069
 C         4.123661        -0.399852        -0.186794
 O         3.926989         1.052924         0.167917
 C         2.661255         1.094146        -0.563778
 C         3.077713        -0.182177        -1.313842
 O         1.852733        -0.925147        -1.017579
 H        -0.098613         0.996610         1.337544
 H        -0.210994         1.052928        -0.522881
 H        -0.378047        -0.500540         0.296040
 H         2.243615         0.060399         2.148366
 H         1.510992        -1.368821         1.714758
 H         4.249897        -1.346045         1.802110
 H         3.481599        -2.207657         0.561001
 H         5.270139        -0.556728        -0.334785
 H         2.341791         2.042638        -0.961470
 H         3.497560        -0.330272        -2.301183
