19
Iteration:   657
 C         0.185360         0.527118         0.264877
 C         1.617959         0.039006         0.125703
 C         2.277081        -0.543184         1.376726
 C         3.603431        -1.193741         1.082433
 C         4.170697        -0.428867        -0.106622
 O         3.933573         1.092440         0.116062
 C         2.686391         0.990430        -0.569704
 C         3.092581        -0.338001        -1.312015
 O         1.700949        -0.847331        -1.084978
 H        -0.007709         1.137496         1.109330
 H         0.046102         1.288794        -0.602182
 H        -0.442843        -0.373114         0.020597
 H         2.374014         0.340683         2.097164
 H         1.498182        -1.183931         1.708136
 H         4.262040        -1.187052         1.949735
 H         3.561671        -2.298545         0.868734
 H         5.156743        -0.589525        -0.463241
 H         2.278928         1.956837        -0.906696
 H         3.531687        -0.419375        -2.290454
