19
Iteration:   224
 C         0.249036         0.663091         0.213756
 C         1.562157        -0.047697         0.058769
 C         2.206535        -0.626959         1.431924
 C         3.661231        -1.161963         1.151947
 C         4.188362        -0.336861        -0.072357
 O         3.937730         1.110222         0.164339
 C         2.673470         0.945816        -0.591481
 C         3.041123        -0.296703        -1.365568
 O         1.731568        -0.940184        -1.126964
 H         0.248373         1.508854         0.899089
 H        -0.123622         1.055531        -0.752423
 H        -0.585221         0.018285         0.477785
 H         2.316691         0.237084         2.070921
 H         1.605890        -1.398036         1.956551
 H         4.356695        -1.079127         2.066569
 H         3.582381        -2.259311         1.029368
 H         5.229742        -0.610425        -0.462524
 H         2.211720         1.831603        -1.060811
 H         3.478866        -0.464903        -2.423271
