19
Iteration:   819charge 0 multiplicity 1
 C         0.214327         0.624569         0.265086
 C         1.617547         0.057501         0.164355
 C         2.131320        -0.745096         1.372814
 C         3.591542        -1.238214         0.961896
 C         4.120033        -0.365861        -0.101523
 O         3.994334         1.227534         0.028109
 C         2.741540         0.996474        -0.576182
 C         3.035915        -0.265469        -1.259467
 O         1.795213        -0.953281        -0.991934
 H         0.025017         1.127751         1.236008
 H        -0.148468         1.333686        -0.526478
 H        -0.424235        -0.259712         0.231611
 H         2.171898        -0.086932         2.280968
 H         1.404023        -1.593545         1.534005
 H         4.205909        -1.323278         1.966487
 H         3.618022        -2.260689         0.582569
 H         5.189037        -0.448322        -0.257099
 H         2.448247         1.995536        -1.008700
 H         3.468671        -0.407601        -2.218908
