19
Iteration:    73charge 0 multiplicity 1
 C         0.199756         0.633417         0.276302
 C         1.602541         0.051972         0.113126
 C         2.119770        -0.590754         1.410350
 C         3.501607        -1.299471         1.027959
 C         4.097007        -0.341398        -0.032355
 O         3.975681         1.192825        -0.013087
 C         2.723822         0.981295        -0.682052
 C         3.129956        -0.343048        -1.230225
 O         1.870971        -0.916965        -0.976115
 H         0.237332         1.530490         1.089686
 H        -0.235319         0.955518        -0.666736
 H        -0.423644        -0.161552         0.707610
 H         2.210683        -0.019268         2.365937
 H         1.424514        -1.491622         1.579499
 H         4.186999        -1.568198         1.896015
 H         3.369494        -2.254570         0.362796
 H         5.129680        -0.609272        -0.222469
 H         2.422523         1.870658        -1.358491
 H         3.656099        -0.535769        -2.199378
