19
Iteration:  2330charge 0 multiplicity 1
 C         0.211958         0.526581         0.377567
 C         1.621195         0.069672         0.056685
 C         2.222014        -0.488509         1.322265
 C         3.595222        -1.182365         0.997543
 C         4.123092        -0.412689        -0.213118
 O         3.912759         0.983699         0.194939
 C         2.687798         1.011920        -0.521305
 C         3.106615        -0.160317        -1.308636
 O         1.808482        -0.965509        -1.073272
 H         0.159301         0.978525         1.423986
 H        -0.377334         0.976798        -0.503097
 H        -0.387696        -0.362969         0.514415
 H         2.091395         0.245377         2.171765
 H         1.480502        -1.238670         1.400001
 H         4.288569        -1.236565         1.839883
 H         3.549906        -2.269722         0.713908
 H         5.120777        -0.534152        -0.622228
 H         2.350244         2.064518        -0.717257
 H         3.388401        -0.061136        -2.375970
