19
Iteration:  1307charge 0 multiplicity 1
 C         0.301458         0.647428         0.231512
 C         1.600452        -0.062400         0.115869
 C         2.168343        -0.732599         1.407011
 C         3.653534        -1.051782         1.083918
 C         4.099674        -0.395983        -0.191500
 O         3.931285         1.061820         0.123126
 C         2.625792         0.950694        -0.518380
 C         3.004400        -0.222154        -1.278171
 O         1.779252        -0.910627        -1.110809
 H         0.547756         1.478789         0.981880
 H         0.171655         1.188311        -0.680157
 H        -0.612873         0.059066         0.408586
 H         2.253999         0.141671         2.132263
 H         1.661847        -1.674387         1.753421
 H         4.365410        -0.764438         1.833203
 H         3.902802        -2.151984         1.146361
 H         5.112465        -0.622990        -0.575303
 H         2.357323         1.897054        -0.754731
 H         3.434896        -0.346607        -2.323778
