19
Iteration:  3304
 C         0.119356         0.542697         0.311685
 C         1.619287         0.133782         0.090651
 C         2.258608        -0.535946         1.343320
 C         3.581276        -1.240165         0.986524
 C         4.197073        -0.379250        -0.189326
 O         3.873878         0.972487         0.240256
 C         2.714293         1.017515        -0.539876
 C         3.062017        -0.226021        -1.360103
 O         1.829674        -0.897337        -1.058357
 H         0.200570         1.249427         1.206154
 H        -0.286209         1.121902        -0.580612
 H        -0.404385        -0.387282         0.463846
 H         2.429505         0.103813         2.251299
 H         1.514388        -1.333899         1.549222
 H         4.190740        -1.344998         1.909245
 H         3.311892        -2.287503         0.638645
 H         5.238770        -0.563730        -0.512346
 H         2.471294         2.088430        -0.831104
 H         3.468746        -0.372464        -2.393233
