19
Iteration:  1994charge 0 multiplicity 1
 C         0.183212         0.507120         0.166228
 C         1.587921         0.033241         0.188071
 C         2.274687        -0.590964         1.400706
 C         3.614594        -1.256183         0.966100
 C         4.113921        -0.310875        -0.155417
 O         3.954123         1.085681         0.174253
 C         2.710147         1.015341        -0.524593
 C         3.039387        -0.265921        -1.288695
 O         1.766205        -0.856095        -1.031332
 H         0.058669         1.226456         0.944325
 H        -0.100432         1.007262        -0.873865
 H        -0.434450        -0.282801         0.550178
 H         2.737693         0.213634         1.975460
 H         1.571244        -1.159648         2.076389
 H         4.329125        -1.656154         1.741816
 H         3.354552        -2.236855         0.456549
 H         5.162019        -0.628768        -0.380890
 H         2.175613         1.724938        -1.064315
 H         3.349118        -0.230723        -2.410901
