19
Iteration:   811
 C         0.216284         0.544239         0.267357
 C         1.595209         0.069077         0.116925
 C         2.193322        -0.711021         1.375907
 C         3.526734        -1.256357         0.997898
 C         4.188052        -0.309008        -0.035391
 O         3.981405         1.195818         0.030173
 C         2.748173         0.988878        -0.570595
 C         3.033202        -0.298937        -1.273575
 O         1.783663        -0.864711        -0.996199
 H         0.178611         1.179735         1.149270
 H        -0.081110         1.240393        -0.682724
 H        -0.599076        -0.284551         0.415467
 H         2.393459        -0.023313         2.277481
 H         1.413623        -1.424647         1.596869
 H         4.172080        -1.611820         1.858828
 H         3.562838        -2.281059         0.353131
 H         5.203826        -0.498493        -0.358923
 H         2.168489         1.840988        -1.050487
 H         3.353021        -0.521505        -2.317752
