19
Iteration:   812
 C         0.218481         0.554005         0.265558
 C         1.592651         0.069369         0.120698
 C         2.186855        -0.717577         1.380154
 C         3.533544        -1.252779         0.995173
 C         4.178640        -0.317383        -0.040028
 O         3.982582         1.203151         0.026658
 C         2.753391         0.986724        -0.570175
 C         3.029222        -0.292878        -1.269473
 O         1.785928        -0.875032        -0.996230
 H         0.155958         1.170235         1.155557
 H        -0.087574         1.250473        -0.652230
 H        -0.584301        -0.284345         0.400280
 H         2.379263        -0.037932         2.269063
 H         1.410523        -1.427994         1.569247
 H         4.148995        -1.598172         1.835197
 H         3.599512        -2.287335         0.387881
 H         5.214367        -0.476520        -0.349676
 H         2.200546         1.842600        -1.035506
 H         3.371473        -0.518965        -2.322685
