19
Iteration:  2897
 C         0.166440         0.544262         0.191324
 C         1.577834         0.009881         0.162409
 C         2.257973        -0.633153         1.405190
 C         3.590288        -1.184446         0.964531
 C         4.131683        -0.424586        -0.183477
 O         3.994868         1.071160         0.223908
 C         2.672790         0.930069        -0.538589
 C         3.093376        -0.164215        -1.334504
 O         1.755106        -0.840060        -1.040592
 H        -0.007989         1.425327         0.814617
 H        -0.122747         0.783277        -0.736428
 H        -0.533416        -0.020088         0.714846
 H         2.467669         0.126911         2.128159
 H         1.469535        -1.349382         1.862813
 H         4.322594        -1.094206         1.857767
 H         3.558939        -2.254688         0.641618
 H         5.162344        -0.720846        -0.625131
 H         2.340453         1.897150        -0.898050
 H         3.474201        -0.197306        -2.367660
