19
Iteration:  4887
 C         0.177364         0.531256         0.195678
 C         1.651567         0.047682         0.093205
 C         2.295100        -0.667939         1.404678
 C         3.667045        -1.240023         1.066962
 C         4.116748        -0.289588        -0.181973
 O         3.946241         0.999428         0.212308
 C         2.671257         1.066616        -0.513041
 C         3.041780        -0.281348        -1.339133
 O         1.697714        -0.803533        -1.116492
 H         0.065023         1.596645         0.561076
 H        -0.453754         0.342885        -0.691023
 H        -0.374661         0.009861         1.022501
 H         2.454858         0.199739         2.137380
 H         1.701884        -1.398525         1.885944
 H         4.536147        -1.087905         1.834254
 H         3.578289        -2.383746         0.995237
 H         5.144607        -0.592453        -0.422802
 H         2.318898         2.012011        -0.908613
 H         3.288379        -0.602214        -2.341429
