19
Iteration:  3685charge 0 multiplicity 1
 C         0.143201         0.511966         0.283194
 C         1.591460         0.090213         0.123055
 C         2.250613        -0.606015         1.376779
 C         3.595258        -1.205136         1.027396
 C         4.134130        -0.450549        -0.222057
 O         3.957523         1.005948         0.198527
 C         2.750543         1.075636        -0.489980
 C         3.055745        -0.191852        -1.350864
 O         1.769221        -0.858220        -1.096305
 H         0.028264         0.905975         1.297757
 H        -0.060476         1.245987        -0.528165
 H        -0.615182        -0.195979         0.155352
 H         2.269361         0.083459         2.282374
 H         1.530901        -1.363412         1.832670
 H         4.377649        -1.332802         1.808974
 H         3.516519        -2.241825         0.625202
 H         5.211441        -0.757845        -0.441302
 H         2.468286         2.003949        -0.931744
 H         3.409340        -0.173105        -2.382246
