19
Iteration:  4282charge 0 multiplicity 1
 C         0.146955         0.514206         0.287389
 C         1.645636         0.086666         0.108698
 C         2.126887        -0.670730         1.324688
 C         3.508329        -1.289262         1.073490
 C         4.144154        -0.382478        -0.103147
 O         4.106107         1.136463         0.050624
 C         2.707040         1.125981        -0.562807
 C         3.042597        -0.219612        -1.280161
 O         1.823692        -0.925503        -0.976993
 H         0.078357         1.399778         0.937282
 H        -0.252044         0.886968        -0.705018
 H        -0.390901        -0.300130         0.720420
 H         2.121108        -0.096593         2.231013
 H         1.343987        -1.477949         1.486846
 H         4.201143        -1.428423         1.854201
 H         3.372952        -2.219900         0.405284
 H         5.118653        -0.697585        -0.422884
 H         2.415822         2.017195        -1.170947
 H         3.279350        -0.203751        -2.362590
