19
Iteration:   778
 C         0.126846         0.464474         0.270004
 C         1.641301         0.132212         0.054008
 C         2.283897        -0.428432         1.369172
 C         3.529889        -1.241994         0.966468
 C         4.092088        -0.435953        -0.220124
 O         3.901787         1.004438         0.295195
 C         2.762940         1.037325        -0.492880
 C         3.023813        -0.224622        -1.354926
 O         1.878346        -0.945633        -1.053653
 H         0.166967         1.409216         0.803868
 H        -0.465107         0.559274        -0.780626
 H        -0.391389        -0.344836         0.922301
 H         2.761949         0.329438         2.079004
 H         1.637920        -0.975692         2.023400
 H         4.322297        -1.045490         1.717034
 H         3.266729        -2.287575         0.540279
 H         5.014511        -0.808447        -0.602181
 H         2.382196         2.026965        -0.917285
 H         3.309629        -0.215275        -2.421864
