19
Iteration:   266
 C         0.105246         0.563340         0.148918
 C         1.639595         0.089979         0.166933
 C         2.072486        -0.673042         1.355545
 C         3.548488        -1.112679         1.039324
 C         4.165886        -0.399332        -0.205919
 O         4.105776         1.112432         0.078457
 C         2.774934         1.051822        -0.588329
 C         3.032582        -0.277724        -1.287862
 O         1.799003        -0.960308        -0.843204
 H        -0.167565         1.204623         0.889642
 H        -0.201236         0.912096        -0.915094
 H        -0.396817        -0.452628         0.327697
 H         1.903112        -0.127745         2.302696
 H         1.478706        -1.588843         1.339527
 H         4.238941        -0.959616         1.874813
 H         3.669645        -2.104892         0.825561
 H         5.267479        -0.568188        -0.370264
 H         2.506514         2.050469        -0.858028
 H         3.176863        -0.476337        -2.392374
