19
Iteration:  2832charge 0 multiplicity 1
 C         0.141552         0.590227         0.244659
 C         1.605841         0.062915         0.087363
 C         2.234211        -0.572310         1.358733
 C         3.689146        -1.253347         1.043270
 C         4.175109        -0.374408        -0.157373
 O         3.930635         0.993788         0.241729
 C         2.685501         1.021183        -0.544634
 C         3.045299        -0.211215        -1.364721
 O         1.738779        -0.901367        -1.071706
 H         0.105233         0.948623         1.263171
 H        -0.134707         1.256085        -0.593218
 H        -0.507735        -0.272335         0.295215
 H         2.405969         0.250270         1.986354
 H         1.630173        -1.390840         1.798666
 H         4.339229        -1.125739         1.920162
 H         3.543222        -2.253188         0.642236
 H         5.279687        -0.574663        -0.527757
 H         2.319081         2.037994        -0.762503
 H         3.402121        -0.286025        -2.423706
