19
Iteration:   649charge 0 multiplicity 1
 C         0.164474         0.471665         0.210785
 C         1.639266         0.140100         0.164209
 C         2.223665        -0.548263         1.395211
 C         3.594612        -1.190362         1.058591
 C         4.130502        -0.372638        -0.140938
 O         3.988488         1.092154         0.121927
 C         2.784767         0.997910        -0.591068
 C         3.073853        -0.325702        -1.279393
 O         1.673164        -0.878716        -1.038088
 H        -0.213072         1.026396         1.072872
 H        -0.083389         1.053032        -0.770540
 H        -0.445242        -0.497914         0.153424
 H         2.473330         0.153146         2.260368
 H         1.529841        -1.327571         1.792191
 H         4.422996        -1.374747         1.835707
 H         3.331724        -2.233611         0.586454
 H         5.222000        -0.555264        -0.355212
 H         2.430320         1.961238        -1.022558
 H         3.426126        -0.459030        -2.374681
