19
Iteration:   753
 C         0.141503         0.451077         0.195712
 C         1.586616         0.034321         0.116014
 C         2.191731        -0.484316         1.419583
 C         3.539648        -1.171017         0.974129
 C         4.150135        -0.422333        -0.240708
 O         4.029409         0.947090         0.145348
 C         2.731815         1.032500        -0.448886
 C         3.065444        -0.136371        -1.322265
 O         1.797924        -0.878355        -0.979790
 H         0.015112         1.555359         0.549415
 H        -0.232922         0.329375        -0.842658
 H        -0.421730        -0.244564         0.806845
 H         2.408149         0.269478         2.179473
 H         1.553565        -1.266373         1.935332
 H         4.390062        -1.042288         1.773901
 H         3.394997        -2.202070         0.665849
 H         5.139943        -0.773937        -0.549117
 H         2.320020         1.987284        -0.812185
 H         3.331326        -0.132474        -2.350532
