19
Iteration:   309charge 0 multiplicity 1
 C         0.196425         0.479618         0.226542
 C         1.645594         0.037632         0.051239
 C         2.289010        -0.364835         1.401311
 C         3.552705        -1.193612         1.040675
 C         4.119751        -0.417181        -0.124678
 O         3.879193         1.018824         0.273736
 C         2.750953         0.971401        -0.529461
 C         3.039045        -0.264551        -1.409352
 O         1.767416        -0.954171        -1.100519
 H         0.227498         1.089688         1.056501
 H         0.005952         1.111694        -0.764668
 H        -0.462043        -0.446003         0.404882
 H         2.595530         0.566414         1.928969
 H         1.611057        -0.844570         2.109490
 H         4.226987        -1.151453         1.892787
 H         3.294603        -2.167757         0.807165
 H         5.202834        -0.616810        -0.339829
 H         2.410121         1.897253        -0.960333
 H         3.431253        -0.233833        -2.455717
