19
Iteration:  1106
 C         0.126540         0.497986         0.219883
 C         1.601823         0.033186         0.163178
 C         2.249807        -0.587712         1.398720
 C         3.588478        -1.201421         1.059124
 C         4.119256        -0.356745        -0.117594
 O         4.025246         1.075144         0.123027
 C         2.763706         1.033576        -0.589183
 C         3.011858        -0.284201        -1.311227
 O         1.745651        -0.833181        -1.040945
 H         0.030366         1.392216         0.755798
 H        -0.207909         0.516255        -0.884790
 H        -0.526304        -0.381649         0.511699
 H         2.423862         0.061970         2.268901
 H         1.701520        -1.368522         1.891926
 H         4.395415        -1.380874         1.866348
 H         3.401186        -2.053040         0.479444
 H         5.108972        -0.616219        -0.399342
 H         2.503721         2.036975        -1.018869
 H         3.313218        -0.460918        -2.330776
