19
Iteration:  2297charge 0 multiplicity 1
 C         0.120365         0.440280         0.253715
 C         1.637708         0.088500         0.195869
 C         2.213877        -0.601516         1.428972
 C         3.584291        -1.305459         0.923303
 C         4.108644        -0.321255        -0.096636
 O         4.042178         1.120772         0.093501
 C         2.824079         1.075078        -0.560243
 C         3.061106        -0.252291        -1.295062
 O         1.700250        -0.863603        -1.034421
 H        -0.414081         1.106202         1.037217
 H        -0.270265         0.868548        -0.732707
 H        -0.218809        -0.580187         0.362642
 H         2.608540         0.037313         2.262828
 H         1.550054        -1.262944         1.912143
 H         4.251197        -1.557675         1.742276
 H         3.338561        -2.143796         0.295876
 H         5.115131        -0.418388        -0.460986
 H         2.290143         1.994422        -0.886282
 H         3.289655        -0.403623        -2.349464
