19
Iteration:  3256charge 0 multiplicity 1
 C         0.238265         0.573864         0.248836
 C         1.644570         0.051200         0.179383
 C         2.160096        -0.706724         1.394191
 C         3.610308        -1.298205         1.002808
 C         4.152358        -0.348641        -0.127930
 O         3.980601         1.099638         0.102466
 C         2.648056         1.061736        -0.522451
 C         3.012578        -0.230708        -1.290326
 O         1.801240        -0.847897        -1.071770
 H         0.190877         1.607837         0.874186
 H        -0.036885         0.905982        -0.790132
 H        -0.505836        -0.248571         0.532050
 H         2.149847        -0.008903         2.206360
 H         1.396555        -1.530110         1.573509
 H         4.363200        -1.455038         1.810677
 H         3.598781        -2.228057         0.421049
 H         5.254344        -0.672593        -0.104815
 H         2.271253         1.960645        -0.919084
 H         3.231444        -0.357131        -2.381925
