19
Iteration:  4853charge 0 multiplicity 1
 C         0.131664         0.551846         0.286067
 C         1.556661         0.113724         0.137510
 C         2.156796        -0.632094         1.411643
 C         3.452867        -1.223036         0.898344
 C         4.153133        -0.325166        -0.231607
 O         4.067486         1.083721         0.125331
 C         2.654573         1.036515        -0.498677
 C         3.120000        -0.219257        -1.328753
 O         1.927993        -0.990586        -0.938806
 H         0.071126         1.550779         0.750289
 H        -0.380557         0.610143        -0.645017
 H        -0.267218        -0.282492         0.944772
 H         2.107827         0.022713         2.302656
 H         1.473516        -1.468422         1.630073
 H         4.225708        -1.302583         1.749219
 H         3.270669        -2.259692         0.387122
 H         5.225818        -0.415813        -0.460199
 H         2.367350         2.036960        -0.979330
 H         3.294424        -0.383275        -2.429079
