19
Iteration:  2947
 C         0.220400         0.564095         0.301562
 C         1.567079         0.074868         0.140185
 C         2.130349        -0.669617         1.412430
 C         3.557345        -1.294107         0.955063
 C         4.202549        -0.330280        -0.137795
 O         3.966424         1.145837         0.135572
 C         2.768386         0.973456        -0.578070
 C         3.066775        -0.251996        -1.300306
 O         1.803417        -0.900165        -1.080563
 H         0.100095         1.155389         1.288352
 H        -0.297750         1.149260        -0.576461
 H        -0.531127        -0.184292         0.789524
 H         2.197335         0.152400         2.186361
 H         1.373111        -1.406040         1.677975
 H         4.310133        -1.254688         1.744947
 H         3.395420        -2.294253         0.559734
 H         5.271530        -0.476605        -0.237125
 H         2.468780         1.883814        -1.136915
 H         3.260611        -0.224379        -2.370830
