19
Iteration:  2587charge 0 multiplicity 1
 C         0.205581         0.481054         0.293082
 C         1.626402         0.012051         0.218122
 C         2.202337        -0.663099         1.388961
 C         3.491067        -1.279570         0.876177
 C         4.117262        -0.297418        -0.102113
 O         3.975100         1.168771         0.078345
 C         2.716979         1.012806        -0.550340
 C         3.105397        -0.238914        -1.263471
 O         1.843897        -0.819858        -1.035886
 H         0.166621         1.254214         1.144316
 H        -0.188442         0.760147        -0.647442
 H        -0.562375        -0.337754         0.663659
 H         2.249016        -0.006254         2.155099
 H         1.412933        -1.357837         1.731085
 H         4.170946        -1.700207         1.658312
 H         3.123677        -2.139748         0.396522
 H         5.193653        -0.491903        -0.469509
 H         2.357784         1.913469        -1.057243
 H         3.414325        -0.561523        -2.252568
