19
Iteration:  3277
 C         0.195336         0.612632         0.346720
 C         1.613868        -0.023077         0.020745
 C         2.218274        -0.615804         1.322565
 C         3.569702        -1.195680         0.998128
 C         4.097095        -0.363636        -0.210715
 O         3.913143         1.040100         0.270077
 C         2.718191         0.973974        -0.494502
 C         3.095118        -0.195516        -1.331233
 O         1.791357        -0.917702        -1.097701
 H         0.505811         1.421365         1.092951
 H        -0.206226         0.995573        -0.572758
 H        -0.469415        -0.231805         0.659821
 H         2.520522         0.207264         1.947991
 H         1.461501        -1.233525         1.820536
 H         4.249638        -1.042338         1.857669
 H         3.505901        -2.241453         0.710641
 H         5.134152        -0.703373        -0.521482
 H         2.459092         1.923509        -0.898315
 H         3.487467        -0.144927        -2.350025
