19
Iteration:   942
 C         0.190888         0.490867         0.206005
 C         1.604677         0.045939         0.178746
 C         2.315393        -0.515875         1.390400
 C         3.617032        -1.323431         1.014540
 C         4.170722        -0.345595        -0.170078
 O         3.951376         1.036498         0.201195
 C         2.670204         0.932355        -0.516767
 C         3.041725        -0.225897        -1.341754
 O         1.738517        -0.816791        -1.085387
 H         0.109890         1.445473         0.538947
 H        -0.192962         0.472700        -0.877891
 H        -0.594209        -0.117719         0.690489
 H         2.419676         0.447002         1.997899
 H         1.649227        -1.041241         2.063752
 H         4.245939        -1.143051         1.881164
 H         3.392953        -2.281110         0.680125
 H         5.213160        -0.336413        -0.400353
 H         2.238751         1.922516        -0.815608
 H         3.169842        -0.359408        -2.416999
