19
Iteration:  1197charge 0 multiplicity 1
 C         0.125488         0.526725         0.178267
 C         1.600215         0.140950         0.147427
 C         2.213639        -0.676818         1.422464
 C         3.631948        -1.181433         0.964239
 C         4.173902        -0.331003        -0.160655
 O         4.018734         1.068964         0.127295
 C         2.763208         1.033835        -0.588087
 C         3.010538        -0.276692        -1.292640
 O         1.747797        -0.897487        -0.941748
 H        -0.045356         1.320479         1.008698
 H        -0.210119         0.836965        -0.812749
 H        -0.419606        -0.468626         0.307173
 H         2.119792        -0.000159         2.381117
 H         1.387537        -1.472689         1.669842
 H         4.249304        -1.229495         1.878559
 H         3.410658        -2.265149         0.604865
 H         5.230214        -0.498368        -0.444659
 H         2.528511         2.002946        -0.903317
 H         3.277571        -0.563142        -2.381639
