19
Iteration:  2092charge 0 multiplicity 1
 C         0.212690         0.487721         0.373050
 C         1.632321         0.074387         0.084372
 C         2.169387        -0.628438         1.325890
 C         3.557273        -1.134908         1.024252
 C         4.172493        -0.403072        -0.153681
 O         3.952286         1.102832         0.152586
 C         2.727211         0.978672        -0.571233
 C         3.047287        -0.239667        -1.346518
 O         1.775532        -0.911338        -1.044200
 H         0.159802         1.029643         1.258358
 H        -0.097461         1.158256        -0.538846
 H        -0.435832        -0.354417         0.455099
 H         2.171418         0.235771         1.972764
 H         1.480073        -1.379407         1.744501
 H         4.252783        -1.202937         1.913898
 H         3.585807        -2.227670         0.742289
 H         5.238040        -0.471647        -0.476826
 H         2.376462         2.056081        -0.857275
 H         3.415217        -0.296677        -2.457199
