19
Iteration:  2907charge 0 multiplicity 1
 C         0.171890         0.575711         0.254768
 C         1.637912         0.035264         0.065425
 C         2.227048        -0.581124         1.396743
 C         3.619763        -1.217973         1.011904
 C         4.142117        -0.408151        -0.234834
 O         3.938575         1.014318         0.291308
 C         2.695197         1.029897        -0.518292
 C         3.067389        -0.208480        -1.373614
 O         1.738890        -0.904561        -1.070066
 H         0.182589         1.540101         0.860343
 H        -0.247972         0.682769        -0.694178
 H        -0.362698        -0.274990         0.646358
 H         2.375405         0.241800         2.085415
 H         1.568011        -1.427891         1.893772
 H         4.431432        -1.014525         1.848485
 H         3.519117        -2.335300         0.885271
 H         5.258448        -0.502664        -0.511604
 H         2.408749         1.950193        -1.011876
 H         3.304252        -0.092856        -2.439478
