19
Iteration:  4900charge 0 multiplicity 1
 C         0.095973         0.570237         0.231143
 C         1.570057         0.063752         0.100380
 C         2.308808        -0.603268         1.465917
 C         3.763615        -1.191390         1.022101
 C         4.183557        -0.469296        -0.195843
 O         3.866725         1.022196         0.264291
 C         2.701156         0.961265        -0.539143
 C         3.043239        -0.273899        -1.329519
 O         1.710958        -0.814592        -1.180176
 H         0.209159         1.665536         0.543448
 H        -0.484455         0.613097        -0.773520
 H        -0.347456        -0.054767         1.037839
 H         2.437981         0.168936         2.288530
 H         1.582734        -1.288790         1.796338
 H         4.435548        -0.891932         1.889794
 H         3.817047        -2.263625         0.797869
 H         5.216930        -0.470822        -0.603200
 H         2.427025         1.917289        -0.784425
 H         3.474423        -0.182603        -2.275905
