19
Iteration:  3368
 C         0.147251        -0.338988        -0.333192
 C         1.562377        -0.094838        -0.059091
 C         2.230834        -0.746271         1.152057
 O         3.627669        -0.204486         1.361926
 C         4.183825         0.127354         0.115599
 C         3.803731        -0.928451        -0.935808
 C         2.491191        -0.168737        -1.253849
 C         3.011166         1.241381        -0.707314
 O         1.835922         1.429353         0.128285
 H        -0.078509         0.074657        -1.290391
 H        -0.096092        -1.390425        -0.507787
 H        -0.516416         0.068982         0.413135
 H         1.571901        -0.729905         2.036549
 H         2.355696        -1.853665         0.971092
 H         5.192191         0.462938         0.203438
 H         4.517156        -0.796657        -1.734313
 H         3.772090        -1.842752        -0.383493
 H         2.249346        -0.127462        -2.341540
 H         3.414484         2.137096        -1.276576
