19
Iteration:     5
 C         0.099354        -0.359958        -0.378057
 C         1.575876        -0.097137        -0.079232
 C         2.284375        -1.170930         0.733604
 O         3.579707        -0.684722         1.129941
 C         4.111583         0.204125         0.145733
 C         3.925392        -0.282264        -1.299857
 C         2.510960         0.384228        -1.272729
 C         3.004958         1.337823        -0.159386
 O         1.816537         1.129210         0.651489
 H        -0.492149        -0.390392         0.523005
 H        -0.318432         0.463806        -0.899570
 H        -0.004703        -1.350734        -0.920474
 H         1.850795        -1.455742         1.720554
 H         2.430167        -2.006005         0.079038
 H         5.137724         0.517655         0.409159
 H         4.590873         0.162908        -2.050445
 H         3.928663        -1.446794        -1.426301
 H         2.012581         0.506136        -2.294124
 H         3.336752         2.373557        -0.237658
