19
Iteration:  1367
 C         0.157620        -0.396417        -0.455535
 C         1.544018        -0.086244        -0.076347
 C         2.242057        -0.875009         1.006057
 O         3.606975        -0.434035         1.338402
 C         4.104875         0.201732         0.137814
 C         3.844800        -0.732839        -1.083933
 C         2.523610         0.038917        -1.315820
 C         3.039942         1.275228        -0.507838
 O         1.848175         1.383324         0.377413
 H         0.315800        -1.330136        -1.152781
 H        -0.359584        -0.748145         0.424120
 H        -0.312970         0.575104        -0.825514
 H         1.730375        -0.535938         2.025023
 H         2.278003        -1.940430         0.953589
 H         5.100554         0.480459         0.456996
 H         4.441956        -0.679055        -2.030816
 H         3.645416        -1.764716        -0.887214
 H         2.041569         0.049090        -2.194887
 H         3.318347         2.291935        -0.994449
