19
Iteration:  4432
 C         0.078371        -0.324080        -0.234711
 C         1.551166        -0.090547        -0.025855
 C         2.173606        -0.251513         1.317468
 O         3.512660         0.314304         1.374798
 C         4.112518         0.139304         0.138695
 C         3.864126        -1.170579        -0.614863
 C         2.572320        -0.623529        -1.122503
 C         3.114966         0.814503        -0.972583
 O         1.930586         1.391720        -0.373594
 H        -0.184149         0.665756        -0.710942
 H        -0.282418        -1.268899        -0.852881
 H        -0.481429        -0.373882         0.783309
 H         1.653416         0.244578         2.084364
 H         2.412267        -1.343215         1.547433
 H         5.175810         0.491965         0.246060
 H         4.596687        -1.222007        -1.359640
 H         3.781377        -2.143682        -0.125157
 H         2.029455        -0.957509        -1.968487
 H         3.566466         1.396647        -1.836140
