19
Iteration:  3839
 C         0.024328        -0.311763        -0.270962
 C         1.516609        -0.126254        -0.083348
 C         2.189793        -0.659629         1.189074
 O         3.567536        -0.025865         1.364321
 C         4.118456         0.185133         0.085487
 C         3.875048        -1.002443        -0.959686
 C         2.584777        -0.244628        -1.320040
 C         3.081785         1.072818        -0.679628
 O         1.942257         1.332971         0.092351
 H        -0.359153        -1.027327         0.510058
 H        -0.492094         0.628906        -0.020172
 H        -0.167756        -0.444843        -1.371460
 H         1.655709        -0.268374         2.077745
 H         2.305781        -1.671232         1.419416
 H         5.097927         0.722366         0.219090
 H         4.632531        -0.794830        -1.704163
 H         3.875637        -2.095860        -0.756104
 H         2.130193        -0.231702        -2.345796
 H         3.441285         2.003934        -1.197547
