19
Iteration:  1095charge 0 multiplicity 1
 C         0.066554        -0.543348        -0.351161
 C         1.628652        -0.033625        -0.066239
 C         2.165643        -0.880484         1.052246
 O         3.628575        -0.663518         1.206276
 C         4.089829         0.120533         0.168674
 C         3.922209        -0.561517        -1.197655
 C         2.576374         0.231518        -1.314232
 C         3.070819         1.356003        -0.346842
 O         1.811413         1.391969         0.317892
 H        -0.701152         0.283891        -0.267201
 H        -0.088527        -1.092365        -1.205424
 H        -0.135312        -1.145312         0.555038
 H         1.696848        -0.665812         1.935400
 H         1.991722        -1.995151         0.862825
 H         5.021227         0.527806         0.506664
 H         4.518899        -0.062842        -2.072144
 H         4.027607        -1.723788        -1.319929
 H         1.923571         0.370216        -2.328263
 H         3.432690         2.264573        -0.715360
