19
Iteration:  3927charge 0 multiplicity 1
 C         0.140679        -0.426535        -0.166416
 C         1.600131        -0.153702        -0.070982
 C         2.183089        -0.595387         1.285534
 O         3.446007        -0.040019         1.392330
 C         4.106337         0.161116         0.088672
 C         3.770065        -0.945468        -0.940484
 C         2.557145        -0.166720        -1.390852
 C         3.175495         1.091043        -0.756355
 O         1.954762         1.376847        -0.043914
 H        -0.348541        -1.035476        -1.007573
 H        -0.234005        -0.843463         0.839011
 H        -0.277339         0.595497        -0.229382
 H         1.488026        -0.160336         2.026507
 H         2.261696        -1.771237         1.322438
 H         5.209898         0.428155         0.345666
 H         4.614741        -1.175882        -1.605230
 H         3.599535        -2.004799        -0.527505
 H         2.115860        -0.253565        -2.410792
 H         3.726976         1.961303        -1.254936
