19
Iteration:   514
 C         0.197897        -0.393240        -0.419145
 C         1.590326        -0.042105        -0.033877
 C         2.310057        -1.142660         0.832015
 O         3.557637        -0.566436         1.246514
 C         4.003383         0.142312         0.135466
 C         3.817830        -0.492351        -1.264999
 C         2.558402         0.374549        -1.350718
 C         3.001401         1.346463        -0.252749
 O         1.861933         1.226477         0.599394
 H        -0.143075         0.204390        -1.279531
 H         0.123224        -1.420339        -0.953759
 H        -0.557349        -0.180642         0.453231
 H         1.726407        -1.486819         1.745211
 H         2.423263        -1.988150         0.231359
 H         5.040599         0.394685         0.411324
 H         4.626220        -0.054693        -1.880715
 H         3.727038        -1.635721        -1.395302
 H         2.098059         0.495054        -2.368090
 H         3.433259         2.281405        -0.558713
