19
Iteration:  1056charge 0 multiplicity 1
 C         0.110881        -0.365961        -0.300150
 C         1.612651        -0.041375        -0.101334
 C         2.235892        -0.952338         0.987947
 O         3.563923        -0.614876         1.237021
 C         4.057755         0.225646         0.134877
 C         3.970011        -0.530033        -1.239256
 C         2.552463         0.131594        -1.309889
 C         3.018608         1.276055        -0.433474
 O         1.810639         1.266167         0.426735
 H        -0.428059         0.319999        -0.985348
 H         0.094382        -1.433691        -0.796361
 H        -0.473194        -0.393370         0.637041
 H         1.604286        -0.780012         2.003216
 H         2.136423        -1.999896         0.723294
 H         5.064868         0.580731         0.473299
 H         4.633710        -0.001443        -1.830268
 H         4.142478        -1.571377        -1.198124
 H         2.067067         0.278103        -2.287112
 H         3.429152         2.337427        -0.548231
