19
Iteration:   788charge 0 multiplicity 1
 C         0.188685        -0.371828        -0.452962
 C         1.598897        -0.123122        -0.083563
 C         2.268046        -1.014674         0.943467
 O         3.617793        -0.529582         1.270383
 C         4.098754         0.203900         0.135301
 C         3.800229        -0.520769        -1.148717
 C         2.521856         0.180266        -1.280949
 C         2.999192         1.291557        -0.379647
 O         1.839207         1.300300         0.440327
 H         0.053172        -0.432311        -1.530343
 H        -0.341362        -1.347851        -0.082159
 H        -0.372230         0.530148        -0.009983
 H         1.540690        -1.058814         1.892018
 H         2.253060        -2.050503         0.621336
 H         5.163343         0.324760         0.508271
 H         4.573532        -0.395203        -1.860329
 H         3.723016        -1.626646        -1.018060
 H         1.967452         0.412333        -2.373688
 H         3.386167         2.255679        -0.631980
