19
Iteration:   400
 C         0.216896        -0.373606        -0.481792
 C         1.619430        -0.078837        -0.129613
 C         2.285669        -1.109081         0.762760
 O         3.571650        -0.571567         1.204294
 C         4.093376         0.186189         0.188394
 C         3.739432        -0.466630        -1.287322
 C         2.525553         0.426142        -1.270511
 C         3.004056         1.316556        -0.195057
 O         1.867563         1.120996         0.650638
 H         0.000607        -1.488701        -0.579616
 H        -0.324459        -0.107575         0.494155
 H        -0.062291         0.115725        -1.386846
 H         1.732927        -1.378930         1.752596
 H         2.416688        -1.941154         0.170395
 H         5.161708         0.393409         0.424786
 H         4.476967        -0.184102        -2.018751
 H         3.597014        -1.518357        -1.347027
 H         1.930234         0.778487        -2.241479
 H         3.195479         2.412010        -0.301798
