19
Iteration:   544
 C         0.128613        -0.371800        -0.438560
 C         1.577454        -0.062809        -0.100790
 C         2.274162        -1.072840         0.827856
 O         3.580085        -0.577494         1.166284
 C         4.109414         0.187793         0.144997
 C         3.843712        -0.475510        -1.202968
 C         2.535469         0.281468        -1.227326
 C         3.030700         1.308545        -0.176376
 O         1.832568         1.221188         0.533013
 H        -0.464350         0.498328        -0.374969
 H         0.062268        -0.888065        -1.448740
 H        -0.247104        -0.982031         0.270331
 H         1.654388        -1.103674         1.847777
 H         2.289844        -2.071869         0.279658
 H         5.120735         0.491234         0.358055
 H         4.453531        -0.212203        -2.070399
 H         3.919902        -1.509946        -1.222142
 H         2.094729         0.454033        -2.369883
 H         3.482461         2.170459        -0.692358
