19
Iteration:   816
 C         0.053259        -0.472927        -0.302783
 C         1.520371        -0.069201        -0.062312
 C         2.173227        -0.891197         1.031478
 O         3.556434        -0.604586         1.212019
 C         4.136167         0.179037         0.167170
 C         4.026530        -0.526968        -1.278081
 C         2.628035         0.189709        -1.333160
 C         3.064029         1.256523        -0.357161
 O         1.788823         1.331222         0.365520
 H        -0.280090        -0.329307        -1.322111
 H        -0.137233        -1.522815        -0.028843
 H        -0.439043         0.269318         0.266199
 H         1.569905        -0.860644         1.863142
 H         1.940973        -1.959913         0.649477
 H         5.090538         0.293501         0.682727
 H         4.762397         0.037869        -2.034037
 H         4.056413        -1.628684        -1.284580
 H         2.187142         0.451201        -2.275150
 H         3.468628         2.326738        -0.463404
