19
Iteration:  4339charge 0 multiplicity 1
 C         0.120973        -0.348135        -0.222888
 C         1.580422        -0.017182        -0.019233
 C         2.145989        -0.286232         1.441644
 O         3.519932         0.099922         1.351734
 C         4.090272         0.150768         0.079918
 C         3.899919        -1.139803        -0.674733
 C         2.567171        -0.480594        -1.169787
 C         3.097284         0.905206        -0.972610
 O         1.909505         1.364511        -0.336694
 H        -0.165877        -1.269656         0.278300
 H        -0.438091         0.475929         0.132961
 H        -0.136289        -0.455340        -1.276428
 H         1.534591         0.453974         2.040406
 H         1.997491        -1.352300         1.677066
 H         5.116691         0.426796         0.168422
 H         4.758584        -1.207924        -1.474337
 H         3.875128        -2.018681         0.009793
 H         2.058247        -0.873828        -2.099616
 H         3.469658         1.684407        -1.590205
