19
Iteration:  1978charge 0 multiplicity 1
 C         0.095759        -0.369639        -0.321790
 C         1.572721        -0.090457        -0.061097
 C         2.164719        -0.782269         1.193575
 O         3.540843        -0.455856         1.278555
 C         4.130754         0.183828         0.141074
 C         3.999376        -0.691274        -1.102711
 C         2.574189        -0.081122        -1.312376
 C         2.999449         1.240121        -0.577602
 O         1.842229         1.377942         0.217216
 H        -0.527138         0.437288         0.191540
 H        -0.133861        -0.107582        -1.385410
 H        -0.333194        -1.306826        -0.060423
 H         1.659286        -0.547286         2.214992
 H         2.046562        -1.919054         1.142694
 H         5.097368         0.618854         0.486976
 H         4.729791        -0.356096        -1.871333
 H         4.015503        -1.702502        -1.040426
 H         2.322119        -0.183186        -2.352921
 H         3.513332         2.089173        -1.093510
