19
Iteration:  1335
 C         0.101485        -0.409315        -0.246862
 C         1.530692        -0.128434        -0.060801
 C         2.198237        -0.871991         1.057286
 O         3.529019        -0.504121         1.290569
 C         4.115313         0.141361         0.203383
 C         4.023626        -0.624397        -1.231383
 C         2.610748         0.097484        -1.322629
 C         3.071185         1.262599        -0.449486
 O         1.793640         1.389782         0.205348
 H        -0.208121        -1.568751        -0.158974
 H        -0.349539         0.106304         0.604244
 H        -0.353391        -0.011984        -1.233334
 H         1.420081        -0.541070         1.900887
 H         1.993296        -1.914040         0.895197
 H         5.079141         0.391958         0.649922
 H         4.758397        -0.206267        -1.972660
 H         4.002726        -1.705481        -1.192461
 H         2.133515         0.162691        -2.261640
 H         3.510388         2.195072        -0.887348
