19
Iteration:  1562charge 0 multiplicity 1
 C         0.103234        -0.368099        -0.240959
 C         1.551948        -0.085380        -0.098418
 C         2.140744        -0.785513         1.142185
 O         3.533994        -0.441810         1.291152
 C         4.065914         0.161515         0.193086
 C         3.944164        -0.694945        -1.086565
 C         2.633936         0.008485        -1.331614
 C         3.111500         1.221760        -0.518928
 O         1.826587         1.355964         0.137960
 H        -0.499306         0.505250         0.120225
 H        -0.005596        -0.763969        -1.249159
 H        -0.093325        -1.218333         0.463251
 H         1.629546        -0.621847         2.002731
 H         2.000402        -1.867618         0.806589
 H         5.124688         0.556966         0.259714
 H         4.672354        -0.333745        -1.925137
 H         4.246243        -1.735321        -1.037230
 H         1.993460        -0.164028        -2.406226
 H         3.505869         2.211786        -0.932665
