19
Iteration:   687
 C         0.084164        -0.418586        -0.388730
 C         1.551585        -0.098208        -0.130090
 C         2.169188        -1.003247         0.979802
 O         3.603841        -0.671728         1.195264
 C         4.181190         0.212886         0.148533
 C         3.912732        -0.452563        -1.156616
 C         2.571079         0.203304        -1.296592
 C         3.090086         1.282402        -0.301052
 O         1.794398         1.336757         0.416194
 H        -0.050559        -1.470280        -0.368563
 H        -0.470555         0.104180         0.460918
 H        -0.385732        -0.022339        -1.252042
 H         1.750520        -0.767577         1.974525
 H         2.007671        -2.039505         0.613945
 H         5.154334         0.530465         0.586930
 H         4.444584        -0.094745        -2.043339
 H         4.018089        -1.484996        -1.280273
 H         2.120944         0.263888        -2.340899
 H         3.284986         2.309025        -0.718254
