19
Iteration:  2859
 C         0.076099        -0.439597        -0.230000
 C         1.556431        -0.061139        -0.057990
 C         2.249597        -0.846499         1.003414
 O         3.545210        -0.452202         1.251995
 C         4.077111         0.212631         0.141009
 C         3.898574        -0.756957        -1.079827
 C         2.634350         0.021725        -1.301423
 C         3.089558         1.247643        -0.512269
 O         1.817778         1.447454         0.225168
 H        -0.349726        -0.248377        -1.211790
 H        -0.189211        -1.487918         0.092148
 H        -0.347981         0.368450         0.380522
 H         1.590962        -0.633598         1.871429
 H         2.091325        -1.993806         0.758215
 H         5.116643         0.420992         0.472138
 H         4.692329        -0.675881        -1.837215
 H         4.023602        -1.818152        -0.814254
 H         2.184240         0.073184        -2.286016
 H         3.363110         2.230435        -0.943376
