19
Iteration:  4692
 C        -0.021287        -0.286951        -0.131819
 C         1.527962        -0.001142        -0.011515
 C         2.080133        -0.038662         1.413139
 O         3.435579         0.438619         1.328684
 C         4.162436         0.182196         0.110135
 C         3.942487        -1.329703        -0.450506
 C         2.641513        -0.841010        -1.041080
 C         3.184194         0.736223        -1.148561
 O         1.975608         1.332724        -0.589304
 H        -0.490290        -0.234027         0.843722
 H        -0.459771         0.460299        -0.824952
 H        -0.160258        -1.303156        -0.449684
 H         1.604232         0.755176         2.108374
 H         2.017262        -1.068515         1.809872
 H         5.205181         0.583088         0.194998
 H         4.671516        -1.626312        -1.259354
 H         3.922606        -2.125522         0.300997
 H         2.113213        -1.353396        -1.861518
 H         3.752510         1.230490        -1.926925
