19
Iteration:  4699
 C        -0.037849        -0.296375        -0.117716
 C         1.515194         0.008645        -0.038523
 C         2.057835        -0.023828         1.362683
 O         3.463997         0.438745         1.344643
 C         4.142774         0.192279         0.072216
 C         3.990530        -1.352577        -0.469880
 C         2.636569        -0.745190        -0.992980
 C         3.240080         0.640583        -1.122368
 O         1.968496         1.322470        -0.590762
 H        -0.428022        -0.304690         0.999051
 H        -0.489617         0.537908        -0.724984
 H        -0.286850        -1.216196        -0.733516
 H         1.529623         0.590083         2.094834
 H         2.072224        -1.068806         1.875477
 H         5.070283         0.691374         0.436385
 H         4.656836        -1.536705        -1.302672
 H         3.856340        -2.059649         0.317171
 H         1.995546        -1.405564        -1.693651
 H         3.531630         1.220349        -2.010326
