19
Iteration:  4019charge 0 multiplicity 1
 C         0.046983        -0.291194        -0.098164
 C         1.549434        -0.134660        -0.066211
 C         2.187358        -0.530409         1.222117
 O         3.470537        -0.041495         1.378771
 C         4.154262         0.157123         0.073997
 C         3.957716        -1.016761        -0.896647
 C         2.604930        -0.298842        -1.303259
 C         3.160294         1.019471        -0.770835
 O         1.868890         1.377424        -0.087828
 H        -0.432277         0.720474        -0.294665
 H        -0.162754        -1.048226        -0.990789
 H        -0.486868        -0.815134         0.811327
 H         1.485687         0.093201         1.857780
 H         1.945320        -1.649476         1.408467
 H         5.175117         0.507481         0.341028
 H         4.688036        -0.813254        -1.718619
 H         4.032959        -2.085965        -0.713191
 H         1.939687        -0.336737        -2.224068
 H         3.419947         1.892537        -1.399940
