19
Iteration:  2963
 C         0.093967        -0.371082        -0.195632
 C         1.575480         0.009335        -0.069356
 C         2.197502        -0.789583         1.177085
 O         3.585941        -0.588670         1.277927
 C         4.104858         0.189526         0.126090
 C         3.999518        -0.710202        -1.121215
 C         2.602499        -0.014967        -1.314506
 C         3.078808         1.247612        -0.549078
 O         1.738362         1.405149         0.140053
 H        -0.331883         0.306645        -1.009597
 H         0.052198        -1.394756        -0.593467
 H        -0.428150        -0.387062         0.755090
 H         1.596667        -0.392458         2.028367
 H         1.896039        -1.843860         0.989083
 H         5.037705         0.529181         0.495846
 H         4.562058        -0.299384        -1.984212
 H         3.994430        -1.789159        -0.977883
 H         2.100419         0.002223        -2.332774
 H         3.464875         2.163049        -1.027326
