19
Iteration:   291charge 0 multiplicity 1
 C         0.022256        -0.349901        -0.454521
 C         1.578662        -0.120070        -0.122509
 C         2.348494        -1.149307         0.716819
 O         3.576711        -0.634929         1.134538
 C         4.152845         0.177778         0.160697
 C         3.854259        -0.392024        -1.246921
 C         2.541044         0.363238        -1.197407
 C         3.083597         1.349558        -0.175887
 O         1.774878         1.179414         0.669967
 H        -0.453639        -0.808488         0.480276
 H        -0.369005         0.650381        -0.801763
 H        -0.243585        -1.053189        -1.209837
 H         1.789301        -1.501578         1.689103
 H         2.455813        -2.054387         0.025548
 H         5.186305         0.417749         0.360158
 H         4.470451         0.188377        -1.986520
 H         4.033831        -1.441821        -1.494063
 H         2.096367         0.599826        -2.239050
 H         3.397096         2.418145        -0.170085
