19
Iteration:  3963
 C         0.097434        -0.366885        -0.336325
 C         1.575422        -0.011998        -0.015216
 C         2.230431        -0.549812         1.229866
 O         3.559870        -0.104594         1.326064
 C         4.163697         0.214740         0.068920
 C         3.861702        -1.055377        -0.879218
 C         2.496286        -0.306525        -1.168986
 C         3.102337         1.034600        -0.710113
 O         1.853233         1.456315        -0.044880
 H        -0.262479        -0.291586        -1.442363
 H        -0.175003        -1.372333         0.208859
 H        -0.452575         0.393187         0.273396
 H         1.755868        -0.428669         2.215613
 H         2.253539        -1.680463         1.011781
 H         5.230188         0.602851         0.303299
 H         4.441195        -0.939076        -1.753655
 H         3.774267        -2.024312        -0.413535
 H         1.988085        -0.555682        -2.115966
 H         3.475067         1.866652        -1.387997
