19
Iteration:  3664
 C         0.134278        -0.389658        -0.108552
 C         1.602587        -0.118674        -0.079638
 C         2.108716        -0.638614         1.255646
 O         3.496121        -0.150340         1.390907
 C         4.128681         0.210847         0.093126
 C         3.878012        -0.919432        -0.964414
 C         2.539222        -0.205387        -1.282032
 C         3.148967         1.140254        -0.731564
 O         1.898780         1.368044        -0.099949
 H        -0.250477        -1.393028        -0.371402
 H        -0.365975         0.034635         0.726504
 H        -0.167337         0.166585        -1.067413
 H         1.530112        -0.017276         1.921662
 H         2.056439        -1.668505         1.296423
 H         5.122954         0.399550         0.521136
 H         4.539283        -0.869087        -1.835440
 H         3.935427        -2.017704        -0.679361
 H         2.213628        -0.361800        -2.322072
 H         3.546290         1.987504        -1.370018
