19
Iteration:  1940
 C         0.102423        -0.410376        -0.245565
 C         1.514910        -0.048496        -0.059511
 C         2.151336        -0.717394         1.156989
 O         3.547521        -0.501228         1.240384
 C         4.145074         0.152895         0.195193
 C         3.980118        -0.686154        -1.087885
 C         2.678583        -0.066907        -1.325436
 C         3.082135         1.192958        -0.529712
 O         1.754761         1.448665         0.111139
 H        -0.324646        -0.112118         0.715304
 H        -0.325832         0.111981        -1.107135
 H        -0.067646        -1.541588        -0.347366
 H         1.709144        -0.369614         2.021320
 H         1.982067        -1.850340         1.010984
 H         5.166175         0.458639         0.532327
 H         4.738909        -0.372422        -1.806761
 H         4.074290        -1.880969        -1.023608
 H         2.048694        -0.083395        -2.286878
 H         3.269558         2.172764        -0.914128
