19
Iteration:  1000
 C         0.068207        -0.310616        -0.362288
 C         1.586985        -0.118683        -0.122612
 C         2.263329        -1.050566         0.884724
 O         3.558001        -0.420960         1.287146
 C         4.132659         0.213370         0.141320
 C         3.888450        -0.543216        -1.201258
 C         2.538829         0.102758        -1.330259
 C         2.992050         1.244099        -0.382292
 O         1.887626         1.259985         0.509681
 H        -0.196172        -0.057803        -1.473185
 H        -0.422773        -1.346896        -0.234624
 H        -0.512134         0.396353         0.289226
 H         1.676055        -1.306278         1.909538
 H         2.443248        -2.026186         0.423152
 H         5.121478         0.576500         0.455610
 H         4.629852        -0.180966        -1.861711
 H         4.050897        -1.644575        -1.249157
 H         2.023067         0.116181        -2.367972
 H         3.375216         2.290149        -0.484452
