19
Iteration:  3407charge 0 multiplicity 1
 C         0.075129        -0.301293        -0.269170
 C         1.568683        -0.151467        -0.090168
 C         2.116781        -0.724796         1.239049
 O         3.544917        -0.181736         1.399561
 C         4.135850         0.180914         0.099809
 C         3.934151        -0.821698        -0.977032
 C         2.540049        -0.200346        -1.319690
 C         3.064513         1.080976        -0.742356
 O         1.939334         1.382983         0.099541
 H        -0.302966         0.779706        -0.311980
 H        -0.154630        -0.801757        -1.276405
 H        -0.390751        -0.797319         0.611691
 H         1.675357        -0.257529         2.109887
 H         2.128217        -1.818314         1.221759
 H         5.144205         0.576661         0.366441
 H         4.580062        -0.492717        -1.830837
 H         4.070233        -1.936707        -0.905287
 H         1.965770        -0.417340        -2.197207
 H         3.281394         1.890558        -1.386752
