19
Iteration:  4615
 C         0.115064        -0.346285        -0.098425
 C         1.521125        -0.047467        -0.117250
 C         2.090237        -0.083579         1.350242
 O         3.440567         0.396512         1.426503
 C         4.169993         0.206204         0.109819
 C         3.824173        -1.284306        -0.514943
 C         2.601542        -0.725740        -1.062490
 C         3.133776         0.742185        -1.061884
 O         2.030395         1.350409        -0.543075
 H        -0.345559         0.165721        -0.935678
 H         0.001203        -1.382052        -0.427434
 H        -0.285108        -0.104584         0.832095
 H         1.434844         0.672997         1.930311
 H         2.084416        -1.006674         1.821624
 H         5.181644         0.733001         0.148263
 H         4.430327        -1.761273        -1.370969
 H         3.854631        -2.133375         0.168138
 H         2.074270        -1.138870        -1.942656
 H         3.529857         1.183541        -1.969319
