19
Iteration:  2986
 C         0.061528        -0.431422        -0.227614
 C         1.555157        -0.102091        -0.123177
 C         2.204623        -0.829897         1.113525
 O         3.531880        -0.341470         1.375681
 C         4.142127         0.128769         0.138936
 C         3.865427        -0.710993        -1.175469
 C         2.578267         0.002455        -1.351059
 C         3.096463         1.186963        -0.494062
 O         1.890349         1.414541         0.185442
 H        -0.476534         0.503360        -0.565627
 H        -0.080279        -1.233463        -0.999972
 H        -0.255992        -0.858071         0.691493
 H         1.573503        -0.463238         1.959212
 H         2.141215        -1.930922         0.981368
 H         5.163890         0.362358         0.322663
 H         4.620292        -0.317595        -1.926223
 H         3.799663        -1.790828        -1.118626
 H         2.014961         0.294938        -2.296247
 H         3.665200         2.030579        -0.923849
