19
Iteration:  4774
 C        -0.003327        -0.393729        -0.191247
 C         1.552297         0.000110        -0.095562
 C         2.154476         0.032365         1.319940
 O         3.508267         0.572701         1.330593
 C         4.084258         0.073691         0.047254
 C         3.799537        -1.317410        -0.305226
 C         2.576000        -0.788654        -0.967758
 C         3.170984         0.697554        -1.126248
 O         2.064501         1.325426        -0.561085
 H        -0.202009        -1.416172        -0.685670
 H        -0.288515        -0.576870         0.842388
 H        -0.644165         0.360516        -0.668880
 H         1.667964         0.654068         2.010916
 H         2.123425        -0.925706         1.782911
 H         5.106032         0.538480         0.107741
 H         4.481295        -1.584926        -1.152055
 H         3.792080        -2.245354         0.462474
 H         1.934935        -1.418440        -1.643981
 H         3.823512         1.314516        -1.899787
