19
Iteration:   928charge 0 multiplicity 1
 C         0.153341        -0.413151        -0.399013
 C         1.603056        -0.131699        -0.028229
 C         2.187688        -0.911540         1.055308
 O         3.575332        -0.593372         1.212712
 C         4.096732         0.201307         0.130686
 C         3.893912        -0.521466        -1.197113
 C         2.545740         0.189180        -1.276369
 C         3.073453         1.268675        -0.354122
 O         1.809745         1.337700         0.340741
 H        -0.386417         0.419727        -0.750767
 H        -0.005345        -1.271639        -1.093608
 H        -0.352446        -0.734372         0.532282
 H         1.673450        -0.773717         1.943132
 H         2.077303        -2.078071         0.780387
 H         5.155054         0.458898         0.393134
 H         4.613106        -0.267638        -2.130955
 H         3.819920        -1.638621        -1.204108
 H         2.113061         0.170493        -2.276184
 H         3.448235         2.316774        -0.543975
