19
Iteration:  1581
 C         0.103041        -0.356070        -0.198710
 C         1.614783        -0.130425        -0.106383
 C         2.145855        -0.804560         1.102683
 O         3.475978        -0.469100         1.337634
 C         4.113307         0.195784         0.196009
 C         4.037132        -0.651963        -1.109434
 C         2.597643        -0.043087        -1.402507
 C         3.049733         1.197899        -0.594623
 O         1.863074         1.376935         0.165852
 H        -0.370386         0.358388         0.451049
 H        -0.553856        -0.286054        -1.147479
 H        -0.197231        -1.384089         0.229317
 H         1.439460        -0.305377         1.875185
 H         1.996947        -1.906831         1.202452
 H         4.979059         0.733053         0.689243
 H         4.679222        -0.442761        -2.025300
 H         4.119782        -1.776318        -1.008931
 H         2.169173         0.165256        -2.303287
 H         3.342486         2.112923        -0.994103
