19
Iteration:   984
 C         0.121750        -0.367310        -0.287906
 C         1.612372        -0.107674        -0.068980
 C         2.209587        -1.022180         0.957474
 O         3.508383        -0.553446         1.223961
 C         4.067867         0.214228         0.172707
 C         3.977390        -0.525513        -1.218216
 C         2.523636         0.209507        -1.287185
 C         3.086837         1.290810        -0.383004
 O         1.841245         1.256139         0.369614
 H        -0.299857        -0.110291        -1.268306
 H        -0.039056        -1.426733        -0.153603
 H        -0.456928         0.260200         0.429944
 H         1.632888        -0.936872         1.813115
 H         2.199985        -2.177381         0.653012
 H         5.070845         0.505506         0.503098
 H         4.589353         0.058250        -2.056551
 H         4.013626        -1.675780        -1.162994
 H         2.180663         0.416933        -2.292334
 H         3.284702         2.223012        -0.901715
