19
Iteration:  4193charge 0 multiplicity 1
 C         0.174617        -0.383738        -0.220570
 C         1.570451        -0.060521         0.004601
 C         2.138696        -0.428114         1.392548
 O         3.491530         0.124134         1.422887
 C         4.132911         0.153139         0.106573
 C         3.833955        -1.077647        -0.811219
 C         2.527629        -0.415696        -1.310576
 C         3.106083         0.971828        -0.960858
 O         1.949097         1.374394        -0.142436
 H         0.026582        -0.508651        -1.247842
 H        -0.283890        -1.176633         0.368510
 H        -0.291986         0.555239        -0.086529
 H         1.445695         0.088754         2.127460
 H         2.095240        -1.516671         1.447471
 H         5.203640         0.535574         0.103900
 H         4.593375        -1.272240        -1.672737
 H         3.680725        -2.119177        -0.201281
 H         2.002519        -0.578886        -2.305818
 H         3.631374         1.610105        -1.759964
