19
Iteration:  3091charge 0 multiplicity 1
 C         0.076201        -0.430028        -0.136378
 C         1.516196        -0.017068        -0.084927
 C         2.158188        -0.743398         1.095839
 O         3.498131        -0.440879         1.286744
 C         4.076330         0.123704         0.121470
 C         3.911101        -0.693332        -1.100662
 C         2.682053        -0.008157        -1.374676
 C         3.089954         1.223849        -0.569405
 O         1.917057         1.367138         0.156797
 H        -0.678010         0.322332         0.216290
 H        -0.090811        -0.758127        -1.135797
 H        -0.147384        -1.238177         0.621954
 H         1.545645        -0.531556         1.984469
 H         1.977170        -1.776081         0.976932
 H         5.035081         0.593909         0.501697
 H         4.706318        -0.487724        -1.847831
 H         4.048756        -1.817040        -0.844759
 H         2.233234        -0.027335        -2.334239
 H         3.571048         2.123670        -0.984357
