19
Iteration:  1098
 C         0.109998        -0.521422        -0.345603
 C         1.597138        -0.017539        -0.073895
 C         2.161672        -0.876281         1.038061
 O         3.643874        -0.661710         1.215087
 C         4.092612         0.131656         0.166700
 C         3.905857        -0.564608        -1.192700
 C         2.571794         0.226375        -1.336636
 C         3.051032         1.337175        -0.355762
 O         1.808769         1.377154         0.326311
 H        -0.706738         0.238829        -0.253834
 H        -0.106440        -1.073205        -1.333808
 H        -0.172430        -1.145894         0.517036
 H         1.758892        -0.747335         2.074867
 H         2.020791        -1.999563         0.885634
 H         5.069210         0.534011         0.497748
 H         4.553780        -0.077806        -1.996566
 H         3.938580        -1.743648        -1.278786
 H         2.047654         0.380127        -2.185702
 H         3.440583         2.289058        -0.716704
