19
Iteration:  4082charge 0 multiplicity 1
 C         0.066601        -0.361788        -0.244001
 C         1.599657        -0.055507        -0.003508
 C         2.145703        -0.514749         1.322573
 O         3.528067        -0.009067         1.423989
 C         4.151068         0.174638         0.008704
 C         3.837108        -1.059760        -0.858598
 C         2.584524        -0.366402        -1.283333
 C         3.106432         1.058341        -0.792702
 O         1.903527         1.409045        -0.121457
 H        -0.549589        -0.423596         0.638967
 H        -0.303943         0.394517        -0.899006
 H        -0.017947        -1.222073        -0.766318
 H         1.749211        -0.040738         2.183008
 H         2.180354        -1.519105         1.521038
 H         5.258490         0.519028         0.017061
 H         4.511313        -1.032302        -1.661563
 H         3.610735        -1.983292        -0.315207
 H         2.145123        -0.724429        -2.206806
 H         3.582458         1.837153        -1.476457
