19
Iteration:  3340charge 0 multiplicity 1
 C         0.148234        -0.402602        -0.198539
 C         1.576789        -0.061740        -0.122530
 C         2.124049        -0.760776         1.221797
 O         3.526923        -0.185199         1.357803
 C         4.067574         0.137552         0.139304
 C         3.849000        -0.888861        -1.126159
 C         2.569869        -0.111238        -1.356673
 C         3.163869         1.164566        -0.617700
 O         1.863824         1.403224         0.101656
 H        -0.332816        -0.768406        -1.151855
 H        -0.019342        -1.276961         0.441333
 H        -0.448119         0.492061         0.253303
 H         1.521836        -0.420518         2.085803
 H         2.300685        -1.842001         1.150572
 H         5.065614         0.708267         0.288958
 H         4.729561        -0.617306        -1.785723
 H         3.845834        -1.987745        -0.821870
 H         2.297300        -0.010153        -2.418622
 H         3.755246         2.007574        -1.000081
