19
Iteration:  1014charge 0 multiplicity 1
 C         0.053463        -0.220431        -0.431086
 C         1.530268        -0.118015        -0.031581
 C         2.400087        -1.075653         0.845313
 O         3.564311        -0.395614         1.301656
 C         4.069516         0.222081         0.114928
 C         3.912733        -0.633404        -1.171032
 C         2.515423         0.087612        -1.331764
 C         3.022864         1.311349        -0.308404
 O         1.837987         1.189750         0.508051
 H         0.043152         0.094364        -1.405684
 H        -0.218821        -1.306789        -0.274324
 H        -0.564900         0.406687         0.169812
 H         1.790070        -1.241840         1.756161
 H         2.663180        -1.936955         0.339504
 H         5.121535         0.580130         0.308064
 H         4.474871        -0.352989        -2.011687
 H         3.956961        -1.648126        -1.139862
 H         1.908805         0.163579        -2.467848
 H         3.298331         2.337296        -0.775668
