19
Iteration:  3547charge 0 multiplicity 1
 C         0.092504        -0.370661        -0.115851
 C         1.556540         0.004675        -0.011917
 C         2.130527        -0.680194         1.220153
 O         3.536712        -0.250061         1.349028
 C         4.029089         0.204362         0.124800
 C         3.981817        -0.931494        -0.902394
 C         2.650739        -0.262698        -1.274550
 C         3.086130         1.167767        -0.760778
 O         1.860241         1.476221        -0.145806
 H        -0.184749        -1.340346         0.277565
 H        -0.394608         0.383730         0.480906
 H        -0.189219        -0.309673        -1.175324
 H         1.665726        -0.405626         2.161901
 H         2.162270        -1.727239         0.863618
 H         5.100845         0.565711         0.220732
 H         4.659421        -1.144306        -1.733046
 H         3.831111        -1.872067        -0.455729
 H         2.067091        -0.587445        -2.145879
 H         3.566206         1.939256        -1.436615
