19
Iteration:  2106
 C         0.172514        -0.363066        -0.397357
 C         1.594229        -0.136500        -0.083995
 C         2.133976        -0.723043         1.164674
 O         3.584496        -0.403993         1.286210
 C         4.134889         0.168429         0.143635
 C         3.927424        -0.745815        -1.049559
 C         2.544863        -0.068023        -1.283679
 C         2.995180         1.177831        -0.557648
 O         1.827972         1.407854         0.228507
 H        -0.394544        -0.675346         0.519290
 H        -0.331343         0.472407        -0.870585
 H        -0.012199        -1.136605        -1.086562
 H         1.747479        -0.182691         2.068030
 H         2.120769        -1.773634         1.231442
 H         5.188859         0.634539         0.342713
 H         4.493333        -0.487945        -1.983446
 H         4.137403        -1.902916        -0.820456
 H         1.894265        -0.092972        -2.230529
 H         3.482989         2.054072        -0.964354
