19
Iteration:  2368
 C         0.151438        -0.378141        -0.334334
 C         1.609709        -0.031343        -0.001073
 C         2.197384        -0.822844         1.054388
 O         3.560202        -0.335617         1.341624
 C         4.092325         0.165059         0.151793
 C         3.838006        -0.815682        -1.087265
 C         2.539874        -0.041519        -1.326714
 C         3.088932         1.200693        -0.566924
 O         1.815040         1.413520         0.182443
 H        -0.092683        -1.051707         0.538890
 H        -0.551227         0.546860        -0.323606
 H         0.198034        -0.861635        -1.291538
 H         1.763883        -0.514657         2.044062
 H         2.174374        -1.903469         0.885013
 H         5.130781         0.475454         0.385755
 H         4.658030        -0.660461        -1.704616
 H         3.932946        -1.900775        -0.817464
 H         2.093808        -0.176763        -2.310664
 H         3.436094         2.181016        -0.798179
