19
Iteration:   633charge 0 multiplicity 1
 C         0.070961        -0.359876        -0.417383
 C         1.591131        -0.129619        -0.084537
 C         2.336306        -1.083311         0.811185
 O         3.536735        -0.493526         1.254839
 C         4.071673         0.193725         0.133742
 C         3.866404        -0.564473        -1.152329
 C         2.506049         0.282377        -1.281335
 C         3.070748         1.317617        -0.281629
 O         1.889014         1.242865         0.466471
 H        -0.465622        -1.042365         0.175748
 H        -0.466949         0.598580        -0.424243
 H         0.039303        -0.796647        -1.377628
 H         1.814692        -1.201125         1.873512
 H         2.434552        -2.160671         0.406503
 H         5.063016         0.525719         0.488685
 H         4.586472        -0.271099        -1.905371
 H         3.817517        -1.630543        -1.035469
 H         1.820189         0.429471        -2.274772
 H         3.351541         2.367274        -0.517967
