19
Iteration:  3973charge 0 multiplicity 1
 C         0.096107        -0.326705        -0.255602
 C         1.496026        -0.023332        -0.013600
 C         2.173912        -0.632774         1.250883
 O         3.615356        -0.127330         1.325740
 C         4.142398         0.173621         0.081128
 C         3.890349        -0.945810        -0.853598
 C         2.554733        -0.345282        -1.172927
 C         3.071555         1.049877        -0.752560
 O         1.867044         1.481254        -0.095534
 H        -0.026388        -0.033861        -1.374620
 H        -0.182008        -1.479167        -0.190407
 H        -0.634090         0.275396         0.292981
 H         1.784451        -0.284932         2.211174
 H         2.095038        -1.803315         1.153656
 H         5.209885         0.634011         0.228956
 H         4.394528        -1.112037        -1.780217
 H         4.016454        -1.917040        -0.321930
 H         2.004617        -0.433890        -2.114404
 H         3.483861         1.799432        -1.526165
