19
Iteration:  4598
 C         0.077463        -0.285449        -0.138862
 C         1.617371        -0.027808        -0.018773
 C         2.092661        -0.084417         1.411417
 O         3.476701         0.332731         1.363919
 C         4.076522         0.146170         0.092758
 C         3.930245        -1.236105        -0.471226
 C         2.592918        -0.684222        -1.131983
 C         3.174764         0.713820        -1.094182
 O         1.910643         1.328532        -0.551992
 H        -0.344889        -0.164400        -1.158755
 H        -0.118439        -1.326643         0.228617
 H        -0.440960         0.505167         0.525425
 H         1.564950         0.647876         1.965218
 H         1.954775        -1.180893         1.810659
 H         5.060257         0.479422         0.296935
 H         4.720607        -1.403928        -1.166714
 H         3.906706        -2.122454         0.236675
 H         2.104686        -1.166802        -1.981450
 H         3.616633         1.355815        -1.892532
