19
Iteration:   650
 C         0.228478        -0.355987        -0.474479
 C         1.621094        -0.089497        -0.107699
 C         2.250593        -1.069884         0.907286
 O         3.525958        -0.444094         1.304471
 C         4.133954         0.192770         0.143225
 C         3.790138        -0.569865        -1.253443
 C         2.521612         0.206119        -1.330623
 C         2.998460         1.305835        -0.321974
 O         1.843115         1.219838         0.578418
 H        -0.249942        -1.170612         0.180579
 H        -0.347705         0.545839        -0.061048
 H         0.088289        -0.464522        -1.599024
 H         1.606342        -1.267458         1.674416
 H         2.501512        -2.000100         0.465850
 H         5.185847         0.369876         0.294741
 H         4.486203        -0.177610        -2.059629
 H         3.636455        -1.700934        -1.273181
 H         2.173405         0.418537        -2.237421
 H         3.443868         2.286709        -0.569901
