19
Iteration:  3100charge 0 multiplicity 1
 C         0.089355        -0.431784        -0.151717
 C         1.559339         0.008856        -0.102090
 C         2.159404        -0.775625         1.049116
 O         3.534289        -0.426266         1.325121
 C         4.141989         0.202364         0.146141
 C         3.946102        -0.786718        -1.085375
 C         2.572381        -0.021967        -1.403425
 C         3.092267         1.192454        -0.591848
 O         1.828708         1.436617         0.218300
 H        -0.598423         0.384239         0.025732
 H        -0.193797        -0.685910        -1.148580
 H        -0.124689        -1.388961         0.434787
 H         1.729923        -0.490996         2.008103
 H         2.020105        -1.865007         0.776866
 H         5.217999         0.414623         0.549989
 H         4.625129        -0.751987        -1.982527
 H         3.883232        -1.907056        -0.760941
 H         2.236749         0.025457        -2.432681
 H         3.627756         2.144801        -0.823901
