19
Iteration:   558charge 0 multiplicity 1
 C         0.085433        -0.381955        -0.381913
 C         1.546771        -0.073425        -0.103337
 C         2.212908        -1.002089         0.880405
 O         3.598489        -0.653984         1.168770
 C         4.130625         0.196711         0.136135
 C         3.969812        -0.471906        -1.249203
 C         2.571694         0.230586        -1.306928
 C         3.065838         1.287900        -0.300637
 O         1.764896         1.251241         0.562482
 H        -0.516591         0.497869        -0.168807
 H        -0.111332        -0.483842        -1.461555
 H        -0.331107        -1.289297         0.186499
 H         1.705489        -1.015580         1.880121
 H         2.211797        -2.019119         0.566858
 H         5.124226         0.485129         0.556141
 H         4.637433         0.161268        -1.826678
 H         4.091811        -1.596213        -1.372339
 H         2.069927         0.624065        -2.249994
 H         3.271117         2.326638        -0.225218
