19
Iteration:  2620
 C         0.087695        -0.351467        -0.221925
 C         1.619939        -0.030463        -0.055375
 C         2.277118        -0.943083         0.965463
 O         3.541995        -0.473454         1.349320
 C         4.047186         0.222596         0.138677
 C         3.862173        -0.711773        -1.046200
 C         2.527602         0.053194        -1.410078
 C         3.076329         1.221563        -0.510568
 O         1.851562         1.402796         0.208450
 H        -0.072686        -0.663119        -1.271967
 H        -0.062932        -1.230651         0.426222
 H        -0.569290         0.457139        -0.059509
 H         1.768553        -0.926008         1.961089
 H         2.484888        -2.002313         0.480414
 H         4.997052         0.644385         0.526361
 H         4.696823        -0.468110        -1.736828
 H         3.872073        -1.851215        -0.823461
 H         2.018986         0.161123        -2.350488
 H         3.553705         2.174143        -0.723153
