19
Iteration:  2547
 C         0.190992        -0.357175        -0.315474
 C         1.571522        -0.024536        -0.049861
 C         2.219866        -0.883344         1.077276
 O         3.547111        -0.458170         1.307810
 C         4.100278         0.201143         0.123371
 C         3.913360        -0.719402        -1.144055
 C         2.517600         0.034370        -1.286137
 C         3.011227         1.232916        -0.492560
 O         1.849130         1.342085         0.227540
 H        -0.033422         0.231707        -1.201790
 H         0.053562        -1.426357        -0.507616
 H        -0.563677         0.084826         0.475906
 H         1.786278        -0.578848         2.088655
 H         2.143501        -1.953420         0.985977
 H         5.205657         0.342798         0.451352
 H         4.531522        -0.491738        -2.000485
 H         3.856891        -1.755492        -0.873539
 H         2.015202         0.051964        -2.337401
 H         3.329671         2.232096        -0.922883
