19
Iteration:  1388
 C         0.184086        -0.383988        -0.495586
 C         1.562330        -0.085488         0.027916
 C         2.249984        -0.952213         1.092769
 O         3.555942        -0.265314         1.307020
 C         4.076447         0.192934         0.072692
 C         3.779287        -0.792533        -1.098583
 C         2.523388         0.077726        -1.327700
 C         3.053923         1.241892        -0.456569
 O         1.904309         1.316116         0.341894
 H         0.280112        -0.948241        -1.468212
 H        -0.381895        -0.986009         0.188460
 H        -0.293109         0.643715        -0.421376
 H         1.608519        -0.934016         2.074548
 H         2.323441        -1.950558         0.653511
 H         5.079315         0.464968         0.389383
 H         4.586202        -0.540732        -1.836464
 H         3.749499        -1.832930        -0.881501
 H         2.062961         0.098836        -2.288483
 H         3.430863         2.285595        -0.891068
