19
Iteration:  4266charge 0 multiplicity 1
 C         0.165095        -0.303847        -0.141080
 C         1.599926        -0.085012        -0.111379
 C         2.167907        -0.361162         1.284958
 O         3.480442         0.136994         1.414341
 C         4.036048         0.163266         0.153859
 C         3.897625        -1.072718        -0.704599
 C         2.533351        -0.495739        -1.293230
 C         3.130655         0.877753        -0.891982
 O         1.915292         1.366420        -0.257408
 H        -0.212123         0.699507         0.265050
 H        -0.296766        -0.623656        -1.149212
 H        -0.149361        -1.022398         0.633203
 H         1.525341         0.097499         1.986620
 H         2.187281        -1.464739         1.281838
 H         5.085554         0.523089        -0.015751
 H         4.672078        -1.113834        -1.418687
 H         3.907883        -1.990126        -0.163602
 H         1.973298        -0.699236        -2.178729
 H         3.571388         1.571199        -1.651415
