19
Iteration:  3176
 C         0.056708        -0.284413        -0.211673
 C         1.561889        -0.072043        -0.060770
 C         2.156470        -0.794134         1.118123
 O         3.546562        -0.386640         1.264487
 C         4.178594         0.207118         0.112472
 C         3.972321        -0.765436        -1.106664
 C         2.520072        -0.138026        -1.299365
 C         3.085986         1.205942        -0.578661
 O         1.842942         1.346277         0.168158
 H        -0.486435        -0.293456         0.735068
 H        -0.394929         0.542600        -0.700071
 H        -0.044659        -1.178944        -0.913014
 H         1.809960        -0.392176         2.085110
 H         2.100692        -1.970221         1.066492
 H         5.125916         0.678105         0.599621
 H         4.705392        -0.337694        -1.793164
 H         4.112371        -1.800303        -0.691833
 H         1.941341        -0.341999        -2.218441
 H         3.476732         2.118760        -1.107013
