19
Iteration:  3073charge 0 multiplicity 1
 C         0.084148        -0.385209        -0.166219
 C         1.611085        -0.126548        -0.132651
 C         2.093219        -0.802927         1.177245
 O         3.499822        -0.419797         1.314953
 C         4.129813         0.208041         0.167925
 C         4.014700        -0.700049        -1.177556
 C         2.539752        -0.030548        -1.328592
 C         3.139708         1.175041        -0.607694
 O         1.849028         1.383781         0.158169
 H        -0.414494         0.606898         0.042116
 H        -0.431010        -0.721015        -1.125920
 H        -0.302560        -1.026154         0.601775
 H         1.671548        -0.311264         2.083303
 H         1.894187        -1.956606         1.184802
 H         5.068951         0.366220         0.608719
 H         4.696904        -0.302628        -1.948328
 H         4.233094        -1.732215        -1.314833
 H         1.982243         0.196691        -2.278097
 H         3.634952         2.088448        -0.944683
