19
Iteration:     3charge 0 multiplicity 1
 C         0.110580        -0.354991        -0.375800
 C         1.582336        -0.099165        -0.084098
 C         2.289242        -1.174713         0.736037
 O         3.584537        -0.692790         1.117655
 C         4.100278         0.210574         0.150745
 C         3.913458        -0.291137        -1.298775
 C         2.516640         0.382304        -1.269287
 C         2.997475         1.334922        -0.155994
 O         1.816541         1.140362         0.644168
 H        -0.452257        -0.417374         0.521648
 H        -0.274029         0.389836        -0.870828
 H         0.001486        -1.338777        -0.937204
 H         1.800641        -1.404318         1.702935
 H         2.390580        -2.021626         0.160040
 H         5.109463         0.520703         0.446832
 H         4.574650         0.178556        -2.021101
 H         3.949809        -1.442917        -1.440650
 H         2.004690         0.599681        -2.248600
 H         3.320174         2.358129        -0.250599
