19
Iteration:  1991
 C         0.084060        -0.297279        -0.360793
 C         1.566901        -0.085620        -0.026683
 C         2.214278        -0.847670         1.094884
 O         3.543667        -0.288518         1.325187
 C         4.109821         0.164434         0.102360
 C         3.951792        -0.771806        -1.099003
 C         2.579567        -0.042826        -1.285141
 C         3.082783         1.171920        -0.531278
 O         1.813278         1.309555         0.232365
 H        -0.521251         0.413393         0.196346
 H        -0.052001        -0.282721        -1.472940
 H        -0.118279        -1.347823        -0.086736
 H         1.514609        -0.527332         2.034946
 H         2.228582        -1.899807         0.857746
 H         5.097939         0.407189         0.336940
 H         4.471412        -0.366010        -1.977886
 H         4.235784        -1.758724        -0.883739
 H         1.953661         0.032741        -2.111766
 H         3.371600         2.187699        -0.870106
