19
Iteration:  1369charge 0 multiplicity 1
 C         0.156322        -0.395323        -0.461711
 C         1.565405        -0.091859        -0.081698
 C         2.246167        -0.866981         1.000124
 O         3.592491        -0.430189         1.346946
 C         4.099100         0.193665         0.130432
 C         3.844571        -0.727487        -1.080628
 C         2.528596         0.031997        -1.300076
 C         3.032509         1.285879        -0.524540
 O         1.853762         1.386713         0.389806
 H         0.301166        -1.309907        -1.238973
 H        -0.393463        -0.792363         0.411833
 H        -0.279168         0.568091        -0.810141
 H         1.774760        -0.575596         2.048799
 H         2.339400        -1.938915         0.954234
 H         5.124820         0.483586         0.406723
 H         4.417049        -0.730853        -2.026319
 H         3.617372        -1.791466        -0.881795
 H         1.953472         0.080191        -2.186800
 H         3.297631         2.236685        -0.967764
