19
Iteration:  4451charge 0 multiplicity 1
 C         0.071152        -0.314379        -0.193606
 C         1.564634         0.019692         0.001154
 C         2.094883        -0.262736         1.424517
 O         3.456718         0.250978         1.434938
 C         4.125061         0.257023         0.031668
 C         3.900322        -1.249982        -0.644702
 C         2.537787        -0.606522        -1.152468
 C         3.177804         0.784000        -0.996716
 O         1.960367         1.334209        -0.424303
 H        -0.539434         0.596291        -0.257460
 H         0.023522        -0.772511        -1.150641
 H        -0.270335        -1.044755         0.458312
 H         1.640233         0.464305         2.152357
 H         2.238554        -1.234105         1.917114
 H         5.167225         0.735827         0.103570
 H         4.543429        -1.475436        -1.596491
 H         4.131249        -2.101748         0.015936
 H         2.113862        -0.872946        -2.105747
 H         3.579959         1.521694        -1.690446
