19
Iteration:  3537
 C         0.103673        -0.332462        -0.201929
 C         1.587718        -0.079685        -0.039836
 C         2.214441        -0.601935         1.208751
 O         3.529733        -0.249396         1.337245
 C         4.106678         0.265284         0.140584
 C         3.922933        -0.983105        -0.916680
 C         2.609167        -0.295541        -1.265440
 C         3.044110         1.069329        -0.801768
 O         1.846433         1.481170        -0.050809
 H        -0.202314        -1.219352         0.374382
 H        -0.454310         0.581813         0.091316
 H        -0.373477        -0.393515        -1.177738
 H         1.762927        -0.475417         2.193663
 H         2.041672        -1.698564         1.240363
 H         5.054827         0.786803         0.505270
 H         4.680831        -0.888635        -1.668318
 H         3.824817        -1.929220        -0.518472
 H         2.112685        -0.291019        -2.231972
 H         3.435067         2.010926        -1.214951
