19
Iteration:   323charge 0 multiplicity 1
 C         0.070616        -0.347650        -0.260804
 C         1.625409        -0.168466        -0.075996
 C         2.251309        -1.179794         0.821672
 O         3.525899        -0.804407         1.076830
 C         4.028806         0.266833         0.207876
 C         4.069576        -0.275901        -1.302748
 C         2.600703         0.382947        -1.324567
 C         3.032189         1.344526        -0.282394
 O         1.773114         1.182805         0.544991
 H        -0.366151        -0.988439         0.577828
 H        -0.369927         0.653776         0.027611
 H        -0.116954        -0.545228        -1.311699
 H         1.550365        -1.252994         1.781232
 H         2.090115        -2.145040         0.304789
 H         4.894007         0.646380         0.827092
 H         4.764518         0.230321        -1.940860
 H         4.097092        -1.360288        -1.300545
 H         2.028334         0.721781        -2.316868
 H         3.464875         2.384456        -0.319602
