19
Iteration:  2916charge 0 multiplicity 1
 C         0.079164        -0.288104        -0.359748
 C         1.527969        -0.071997        -0.010553
 C         2.163605        -0.925403         1.178131
 O         3.579035        -0.312285         1.298989
 C         4.133028         0.143238         0.073103
 C         3.951580        -0.681335        -1.191192
 C         2.558739        -0.028889        -1.329361
 C         3.029650         1.201583        -0.518822
 O         1.890372         1.300746         0.276748
 H        -0.058226        -0.386310        -1.429591
 H        -0.192265        -1.210065         0.168919
 H        -0.617832         0.464866         0.166870
 H         1.640352        -0.654045         2.115566
 H         2.201506        -2.101930         0.935737
 H         5.221833         0.352661         0.338088
 H         4.639979        -0.177801        -1.868784
 H         4.096038        -1.792344        -0.978123
 H         2.066357        -0.046424        -2.276753
 H         3.132560         2.236672        -0.808755
