19
Iteration:  1004charge 0 multiplicity 1
 C         0.040975        -0.288550        -0.373581
 C         1.605484        -0.125413        -0.100241
 C         2.282689        -1.056930         0.868091
 O         3.573359        -0.390204         1.292228
 C         4.125824         0.202452         0.150770
 C         3.897563        -0.583196        -1.211141
 C         2.507701         0.094077        -1.353256
 C         2.977107         1.246175        -0.336438
 O         1.892547         1.259873         0.517119
 H        -0.101878        -0.062123        -1.360687
 H        -0.409281        -1.283452        -0.341490
 H        -0.571195         0.408471         0.145787
 H         1.745516        -1.310596         1.725098
 H         2.495250        -1.992120         0.382709
 H         5.145303         0.583838         0.420584
 H         4.626621        -0.139086        -1.902014
 H         3.992644        -1.629488        -1.135566
 H         2.066798        -0.003231        -2.470753
 H         3.272264         2.336151        -0.456996
