19
Iteration:  1466charge 0 multiplicity 1
 C        -0.007114        -0.358251        -0.215956
 C         1.625826        -0.048966        -0.109019
 C         2.168895        -0.891086         1.069695
 O         3.589186        -0.497541         1.260253
 C         4.115536         0.189225         0.159326
 C         3.996499        -0.635766        -1.052195
 C         2.608930        -0.028727        -1.299189
 C         3.027421         1.211357        -0.528112
 O         1.778322         1.407404         0.169768
 H        -0.088103        -0.477900        -1.375351
 H        -0.212528        -1.267021         0.309665
 H        -0.472189         0.544658         0.180688
 H         1.424638        -0.692614         1.971295
 H         2.101821        -1.959531         0.800285
 H         5.039234         0.536324         0.640119
 H         4.727207        -0.246767        -1.784222
 H         4.221046        -1.676641        -0.988908
 H         2.216956        -0.009038        -2.319215
 H         3.690364         2.124549        -0.938730
