19
Iteration:  4349
 C         0.079767        -0.352010        -0.166355
 C         1.549058        -0.051929         0.016899
 C         2.164765        -0.245750         1.326897
 O         3.489521         0.122380         1.422986
 C         4.104622         0.134561         0.091881
 C         3.927152        -1.133783        -0.687998
 C         2.551322        -0.525612        -1.243897
 C         3.136159         0.898856        -0.903548
 O         1.922910         1.371311        -0.384499
 H        -0.228504        -1.354056        -0.019165
 H        -0.522073         0.198856         0.433297
 H        -0.018888        -0.083592        -1.204107
 H         1.651387         0.406728         2.173169
 H         2.031674        -1.188846         1.890209
 H         5.051527         0.584122         0.192683
 H         4.676726        -1.215551        -1.613678
 H         4.028780        -2.112500        -0.100692
 H         1.987120        -0.662524        -2.247063
 H         3.553441         1.537645        -1.671655
