19
Iteration:  1735
 C         0.046142        -0.313087        -0.334525
 C         1.510911        -0.077153        -0.085867
 C         2.200316        -0.839271         1.095714
 O         3.595436        -0.321087         1.315830
 C         4.095937         0.216627         0.116407
 C         3.954675        -0.711757        -1.065493
 C         2.608194        -0.084767        -1.341237
 C         3.044280         1.156123        -0.516475
 O         1.871515         1.313639         0.244398
 H        -0.502174         0.202509         0.481693
 H        -0.347141         0.101135        -1.243289
 H        -0.252264        -1.407362        -0.371483
 H         1.514215        -0.652723         2.087928
 H         2.133448        -1.868197         0.833693
 H         5.120683         0.656142         0.428687
 H         4.622686        -0.415745        -1.895883
 H         4.043312        -1.747381        -0.779536
 H         2.095748        -0.201171        -2.255741
 H         3.541563         1.981458        -0.998041
