19
Iteration:   691charge 0 multiplicity 1
 C         0.077952        -0.404634        -0.358271
 C         1.548526        -0.075852        -0.146536
 C         2.185316        -0.992299         0.955775
 O         3.601599        -0.694718         1.182539
 C         4.174456         0.206722         0.180762
 C         3.927877        -0.463188        -1.175545
 C         2.592114         0.194825        -1.257131
 C         3.074986         1.300029        -0.320200
 O         1.786415         1.334306         0.400745
 H         0.016997        -1.514281        -0.347186
 H        -0.429990        -0.090816         0.482291
 H        -0.427976         0.095304        -1.241639
 H         1.683443        -0.689367         2.011956
 H         1.944059        -2.057945         0.599681
 H         5.128865         0.628995         0.569868
 H         4.502945        -0.047772        -1.987581
 H         4.113288        -1.597905        -1.243365
 H         2.028415         0.269174        -2.321670
 H         3.223870         2.264530        -0.723385
