19
Iteration:  3070charge 0 multiplicity 1
 C         0.095662        -0.373425        -0.179971
 C         1.577948        -0.132269        -0.134174
 C         2.118598        -0.805756         1.171674
 O         3.506077        -0.417483         1.335201
 C         4.151976         0.190625         0.161085
 C         4.002049        -0.684582        -1.201418
 C         2.551613        -0.049487        -1.337606
 C         3.122130         1.175305        -0.606823
 O         1.829113         1.386395         0.172428
 H        -0.385862         0.627742         0.047693
 H        -0.317730        -0.666667        -1.135677
 H        -0.376872        -0.961842         0.619683
 H         1.628747        -0.352379         2.059915
 H         1.877773        -1.836118         1.195142
 H         5.085185         0.434891         0.675958
 H         4.627355        -0.319049        -1.997108
 H         4.315042        -1.781655        -1.213327
 H         2.021501         0.162743        -2.238408
 H         3.685525         2.029715        -0.941482
