19
Iteration:  4564charge 0 multiplicity 1
 C         0.032067        -0.297548        -0.235052
 C         1.534242        -0.059884        -0.083809
 C         2.137401        -0.216142         1.451364
 O         3.544784         0.334706         1.411255
 C         4.156512         0.150131         0.079059
 C         3.906920        -1.202646        -0.470169
 C         2.587751        -0.678515        -1.085696
 C         3.152669         0.769743        -1.110620
 O         1.894468         1.390759        -0.525694
 H        -0.345355        -1.170405        -0.738012
 H        -0.427082        -0.304789         0.827772
 H        -0.304168         0.730793        -0.646389
 H         1.479578         0.348406         2.066452
 H         2.231924        -1.331447         1.871412
 H         5.142080         0.503129         0.204759
 H         4.600528        -1.577352        -1.195222
 H         3.998468        -1.965210         0.362913
 H         1.905657        -1.012383        -1.798567
 H         3.566778         1.299095        -2.019725
