19
Iteration:  2908
 C         0.097747        -0.310613        -0.311243
 C         1.561257        -0.145857        -0.076640
 C         2.199393        -0.902758         1.121315
 O         3.551148        -0.237047         1.297852
 C         4.117397         0.097140         0.111958
 C         3.929782        -0.703736        -1.147420
 C         2.531140        -0.024070        -1.358925
 C         3.032828         1.218147        -0.475861
 O         1.885008         1.315148         0.317733
 H        -0.075064        -0.356172        -1.433661
 H        -0.303819        -1.224179         0.110896
 H        -0.423022         0.621025         0.036598
 H         1.643368        -0.804030         2.062287
 H         2.320374        -1.894678         0.845969
 H         5.109725         0.440235         0.352370
 H         4.639953        -0.427340        -1.939657
 H         4.042264        -1.765450        -1.374188
 H         1.897042        -0.025824        -2.288518
 H         3.499748         2.138755        -0.899133
