19
Iteration:   780charge 0 multiplicity 1
 C         0.166511        -0.397532        -0.477361
 C         1.614693        -0.111530        -0.033151
 C         2.285405        -1.045326         0.959469
 O         3.536238        -0.521254         1.278118
 C         4.148764         0.227627         0.139238
 C         3.784829        -0.616014        -1.163122
 C         2.521377         0.241930        -1.306068
 C         3.000621         1.348161        -0.404076
 O         1.860591         1.266826         0.468316
 H         0.082647        -0.302685        -1.580246
 H        -0.410513        -1.103653        -0.090623
 H        -0.300121         0.509512        -0.130090
 H         1.791307        -1.173703         1.978977
 H         2.496791        -2.038601         0.468786
 H         5.100504         0.639014         0.417875
 H         4.532333        -0.500976        -1.900138
 H         3.824418        -1.698472        -0.968521
 H         1.912581         0.323501        -2.347780
 H         3.317434         2.333156        -0.685698
