19
Iteration:  1314
 C         0.103323        -0.313378        -0.205521
 C         1.554849        -0.070497        -0.137952
 C         2.169515        -0.908216         1.004728
 O         3.528330        -0.524792         1.323522
 C         4.051349         0.183830         0.164010
 C         4.021886        -0.550936        -1.105233
 C         2.614138        -0.002361        -1.373589
 C         3.068424         1.239353        -0.493193
 O         1.841130         1.304625         0.244469
 H        -0.044837        -1.288536         0.481312
 H        -0.401441         0.518753         0.263707
 H        -0.287977        -0.506432        -1.265470
 H         1.450016        -0.838276         1.971559
 H         2.130908        -1.979201         0.664164
 H         5.029105         0.544740         0.500765
 H         4.543841         0.031460        -1.899051
 H         4.165290        -1.624025        -1.191727
 H         2.044237         0.216818        -2.331383
 H         3.422400         2.196369        -0.847062
