19
Iteration:  3045charge 0 multiplicity 1
 C         0.060904        -0.251116        -0.359376
 C         1.567017        -0.049358        -0.057248
 C         2.239052        -0.856618         1.147716
 O         3.654400        -0.368885         1.286923
 C         4.068989         0.228039         0.128681
 C         3.934432        -0.780391        -1.048101
 C         2.541958        -0.094271        -1.295285
 C         3.025773         1.189650        -0.575179
 O         1.818985         1.324638         0.221469
 H        -0.525631         0.623191        -0.238370
 H        -0.091171        -0.613076        -1.366607
 H        -0.475221        -0.942236         0.366035
 H         1.829064        -0.777509         2.147474
 H         2.119610        -1.864280         0.855703
 H         5.146544         0.517605         0.422009
 H         4.732797        -0.415586        -1.749346
 H         4.006486        -1.918627        -1.119687
 H         1.916259        -0.013407        -2.188398
 H         3.475272         2.169379        -0.884092
