19
Iteration:  2838
 C         0.089947        -0.335433        -0.271756
 C         1.527358        -0.081826        -0.060925
 C         2.122329        -0.723205         1.193022
 O         3.585573        -0.502487         1.303515
 C         4.156484         0.170411         0.143656
 C         3.983336        -0.580743        -1.171941
 C         2.530020        -0.034795        -1.307287
 C         3.115618         1.110164        -0.571091
 O         1.809818         1.331534         0.189064
 H        -0.245792         0.052280        -1.234170
 H         0.164608        -1.472222        -0.413935
 H        -0.566907        -0.061006         0.597999
 H         1.531900        -0.416116         2.057538
 H         1.954222        -1.797759         1.046167
 H         5.095406         0.697322         0.486646
 H         4.608120        -0.218812        -1.983286
 H         4.226951        -1.675788        -1.246744
 H         2.010229        -0.066750        -2.235294
 H         3.557020         2.083538        -0.727779
