19
Iteration:  4927
 C         0.122304        -0.338872        -0.164859
 C         1.559228         0.011279        -0.040872
 C         2.123541         0.185509         1.372543
 O         3.501906         0.516228         1.294490
 C         4.074477         0.143926         0.064211
 C         3.847991        -1.336688        -0.133654
 C         2.570398        -0.853387        -1.033951
 C         3.120319         0.541643        -1.144948
 O         1.976149         1.300180        -0.728590
 H        -0.188624        -0.932208         0.687709
 H        -0.460038         0.556195        -0.094322
 H        -0.172460        -0.809380        -1.062613
 H         1.611009         1.048180         1.784616
 H         2.118230        -0.757852         2.052014
 H         5.101089         0.578337         0.009910
 H         4.582242        -1.756621        -0.835764
 H         3.722282        -1.999805         0.791311
 H         2.137731        -1.483055        -1.827329
 H         3.845172         0.963832        -1.945424
