19
Iteration:   451
 C         0.141400        -0.334357        -0.232958
 C         1.596254        -0.079146        -0.136504
 C         2.199462        -1.108772         0.835503
 O         3.589623        -0.836378         1.080730
 C         4.049209         0.258407         0.201528
 C         4.037691        -0.304226        -1.223147
 C         2.551559         0.240410        -1.287618
 C         3.008800         1.292196        -0.262125
 O         1.745851         1.267372         0.506103
 H        -0.038564        -0.564967        -1.314130
 H        -0.229147        -1.019005         0.472589
 H        -0.328588         0.757927        -0.322146
 H         1.692866        -0.979444         1.716414
 H         2.147375        -2.233115         0.368312
 H         4.983917         0.715413         0.691635
 H         4.651659         0.260623        -1.934776
 H         4.305772        -1.432626        -1.393273
 H         2.142028         0.359632        -2.225622
 H         3.253085         2.336340        -0.504957
