19
Iteration:  2602charge 0 multiplicity 1
 C         0.128349        -0.336346        -0.295914
 C         1.570916        -0.105655        -0.070003
 C         2.143217        -0.920425         1.085991
 O         3.595350        -0.486552         1.288024
 C         4.108751         0.191096         0.160324
 C         3.955062        -0.644695        -1.187235
 C         2.593323         0.004317        -1.215573
 C         3.041105         1.240190        -0.518329
 O         1.783694         1.404825         0.229411
 H        -0.152286        -0.466596        -1.316535
 H        -0.388503        -1.088381         0.264957
 H        -0.330225         0.663317         0.021283
 H         1.771391        -0.741712         2.114307
 H         2.154659        -1.938451         0.807057
 H         5.199657         0.356616         0.479462
 H         4.511740        -0.307414        -2.040353
 H         4.130181        -1.681327        -1.111867
 H         2.074383        -0.062490        -2.232928
 H         3.437967         2.119837        -1.099315
