19
Iteration:  3506charge 0 multiplicity 1
 C         0.018676        -0.328198        -0.386852
 C         1.568797        -0.129671        -0.007489
 C         2.167275        -0.588270         1.310288
 O         3.569261        -0.033412         1.373155
 C         4.161904         0.172876         0.074262
 C         3.852329        -0.966027        -1.037069
 C         2.558172        -0.279599        -1.269801
 C         3.084655         1.100991        -0.739138
 O         1.937380         1.302746         0.082349
 H        -0.592227        -0.877089         0.400861
 H        -0.419226         0.740155        -0.213980
 H        -0.011771        -0.855667        -1.326754
 H         1.628171        -0.210930         2.220568
 H         2.216454        -1.701740         1.261238
 H         5.166254         0.504718         0.363942
 H         4.615091        -0.672948        -1.720513
 H         3.848276        -2.032072        -0.781242
 H         2.016110        -0.372544        -2.216698
 H         3.452588         2.078086        -0.938857
