19
Iteration:  1579charge 0 multiplicity 1
 C         0.110247        -0.370475        -0.190129
 C         1.622870        -0.105763        -0.100330
 C         2.132061        -0.812465         1.094386
 O         3.482122        -0.474542         1.346594
 C         4.107439         0.206671         0.174037
 C         4.032661        -0.646547        -1.117369
 C         2.598615        -0.048659        -1.397109
 C         3.053002         1.201613        -0.589950
 O         1.862177         1.362858         0.158556
 H        -0.398857         0.404267         0.344698
 H        -0.545905        -0.308380        -1.114751
 H        -0.208785        -1.341499         0.238079
 H         1.416331        -0.274277         1.931485
 H         2.007023        -1.874046         1.213409
 H         4.946109         0.659436         0.682974
 H         4.686497        -0.384283        -1.927733
 H         4.050651        -1.767939        -1.010683
 H         2.217843         0.139620        -2.282767
 H         3.405257         2.124975        -0.972164
