19
Iteration:  1595
 C         0.061001        -0.343414        -0.217157
 C         1.533677        -0.146236        -0.171725
 C         2.135663        -0.801165         1.101758
 O         3.537303        -0.397084         1.292319
 C         4.095531         0.234179         0.180231
 C         4.018392        -0.737627        -1.091323
 C         2.615169        -0.035100        -1.304919
 C         3.041285         1.188444        -0.541846
 O         1.842433         1.374889         0.184392
 H        -0.370907         0.205879         0.701900
 H        -0.247443         0.143828        -1.137252
 H        -0.155023        -1.452783        -0.225642
 H         1.716979        -0.570041         2.014085
 H         2.148468        -1.941741         0.946267
 H         5.154528         0.536590         0.467181
 H         4.778325        -0.269619        -1.841228
 H         4.136336        -1.791261        -0.843730
 H         2.132849        -0.153829        -2.414722
 H         3.580571         2.028400        -1.083818
