19
Iteration:  2652
 C         0.088611        -0.403234        -0.245767
 C         1.593284        -0.134860        -0.129111
 C         2.229349        -0.863164         0.983144
 O         3.431331        -0.264868         1.269484
 C         4.146372         0.131185         0.090779
 C         3.866852        -0.740011        -1.112220
 C         2.579121         0.114977        -1.347267
 C         3.100311         1.233537        -0.426437
 O         1.900032         1.323835         0.300109
 H        -0.250838        -0.797066        -1.264465
 H        -0.293675        -1.239944         0.449037
 H        -0.518651         0.436510         0.033688
 H         1.752259        -0.785876         1.987929
 H         2.320098        -2.053380         0.857692
 H         5.186505         0.216546         0.428492
 H         4.674362        -0.531691        -1.885759
 H         3.993010        -1.906397        -0.965705
 H         2.021609         0.146186        -2.247845
 H         3.528301         2.208306        -0.593505
