19
Iteration:  3386
 C         0.078364        -0.293915        -0.374181
 C         1.574759        -0.002849         0.039692
 C         2.249980        -0.745587         1.171304
 O         3.555340        -0.211017         1.297430
 C         4.093898         0.269310         0.069807
 C         3.912599        -0.930039        -0.958122
 C         2.560987        -0.224157        -1.247412
 C         3.058246         1.114591        -0.642214
 O         1.853889         1.376618         0.129987
 H        -0.421330         0.487441        -1.035412
 H        -0.017041        -1.208726        -1.075405
 H        -0.523531        -0.397994         0.534008
 H         1.828190        -0.436739         2.143898
 H         2.342800        -1.826764         1.019083
 H         5.109142         0.629572         0.271372
 H         4.512611        -0.947715        -1.898160
 H         3.794825        -2.034092        -0.481099
 H         1.971607        -0.376361        -2.151711
 H         3.474240         1.912165        -1.198616
