19
Iteration:  2311charge 0 multiplicity 1
 C         0.088121        -0.285486        -0.296281
 C         1.542370        -0.137332        -0.079528
 C         2.205795        -0.786608         1.156408
 O         3.553413        -0.379569         1.321318
 C         4.097392         0.231880         0.182976
 C         3.973960        -0.772647        -1.149348
 C         2.591104        -0.101972        -1.279940
 C         3.065105         1.139024        -0.559000
 O         1.818402         1.388710         0.154408
 H        -0.286361        -0.975113         0.536653
 H        -0.334376         0.741596        -0.312877
 H        -0.236278        -0.981783        -1.177779
 H         1.525528        -0.489612         1.972611
 H         1.963974        -1.830995         0.880833
 H         5.020595         0.637606         0.468473
 H         4.661137        -0.209895        -1.787259
 H         4.358514        -1.802385        -0.993191
 H         2.150071        -0.057234        -2.260395
 H         3.425367         2.066426        -0.969904
