19
Iteration:  1927charge 0 multiplicity 1
 C         0.039526        -0.414959        -0.256705
 C         1.611348        -0.044033        -0.070513
 C         2.140145        -0.785574         1.110474
 O         3.556142        -0.398117         1.373153
 C         4.150944         0.137694         0.144385
 C         4.011180        -0.781816        -1.137091
 C         2.610708         0.009725        -1.292812
 C         3.024144         1.263198        -0.555676
 O         1.803019         1.397004         0.131864
 H        -0.543229        -0.369758         0.639209
 H        -0.549215         0.252697        -0.966817
 H         0.043572        -1.486790        -0.683163
 H         1.584754        -0.501058         2.023524
 H         2.052051        -1.858327         1.038793
 H         5.114201         0.426348         0.416016
 H         4.684260        -0.480918        -1.968046
 H         3.983700        -1.952221        -0.954744
 H         2.139592         0.034376        -2.272832
 H         3.651574         2.036681        -0.983811
