19
Iteration:  1318charge 0 multiplicity 1
 C         0.091267        -0.346291        -0.193436
 C         1.600613        -0.055715        -0.167216
 C         2.118206        -0.917979         1.035332
 O         3.517078        -0.530111         1.328273
 C         4.106018         0.176205         0.179513
 C         4.002381        -0.558213        -1.128374
 C         2.641197        -0.003885        -1.375044
 C         3.050146         1.235186        -0.501142
 O         1.816950         1.332618         0.247483
 H        -0.003239        -1.209655         0.335572
 H        -0.446958         0.476512         0.311300
 H        -0.249930        -0.380018        -1.171020
 H         1.637189        -0.806829         1.933471
 H         2.153836        -2.040133         0.759978
 H         5.092508         0.598910         0.467129
 H         4.517881         0.043538        -1.874252
 H         4.192105        -1.668448        -1.281581
 H         2.008514         0.274117        -2.372371
 H         3.398146         2.201537        -0.841587
