19
Iteration:  3835
 C         0.014906        -0.312549        -0.268862
 C         1.534089        -0.120294        -0.087266
 C         2.149692        -0.675058         1.205805
 O         3.564086        -0.029423         1.380540
 C         4.148062         0.214689         0.076489
 C         3.842759        -0.981175        -0.936616
 C         2.582424        -0.219345        -1.311244
 C         3.104519         1.058021        -0.705708
 O         1.936385         1.335779         0.074863
 H        -0.310068        -1.035881         0.489836
 H        -0.469729         0.618632         0.019973
 H        -0.236380        -0.597452        -1.336169
 H         1.756078        -0.270471         2.167695
 H         2.372418        -1.847256         1.301720
 H         5.143582         0.573436         0.141315
 H         4.657952        -0.874380        -1.825906
 H         3.871139        -2.089037        -0.780312
 H         2.256331        -0.245867        -2.360403
 H         3.397669         1.992845        -1.105945
