19
Iteration:  3001charge 0 multiplicity 1
 C         0.148457        -0.399989        -0.311719
 C         1.601863        -0.012085        -0.083230
 C         2.242565        -0.843613         1.046306
 O         3.501652        -0.244602         1.327585
 C         4.044192         0.106770         0.113307
 C         3.827411        -0.847871        -1.079066
 C         2.500017         0.056076        -1.350692
 C         3.144748         1.212670        -0.573585
 O         1.879882         1.334772         0.334990
 H        -0.471584         0.450804        -0.362608
 H        -0.003335        -0.994289        -1.225476
 H        -0.333712        -0.946551         0.550218
 H         1.698691        -0.748607         1.978682
 H         2.507984        -1.838399         0.894759
 H         5.092370         0.533192         0.333406
 H         4.542588        -0.691584        -1.914758
 H         4.098198        -1.936482        -1.014006
 H         2.201503        -0.073333        -2.379321
 H         3.411737         2.235235        -0.920003
