19
Iteration:   137
 C         0.189302        -0.340539        -0.472855
 C         1.634890        -0.146685        -0.102476
 C         2.317165        -1.155675         0.769211
 O         3.648368        -0.687435         1.168240
 C         4.087615         0.240257         0.152231
 C         3.779942        -0.397606        -1.340458
 C         2.474973         0.423334        -1.206746
 C         2.998764         1.343422        -0.122542
 O         1.809876         1.153541         0.639386
 H        -0.557213        -0.745607         0.301920
 H        -0.384293         0.539176        -0.768039
 H         0.210708        -1.058713        -1.388626
 H         1.633753        -1.244982         1.703104
 H         2.464872        -2.129434         0.289385
 H         5.093996         0.707646         0.336205
 H         4.367860         0.111341        -2.176815
 H         3.627253        -1.549143        -1.376317
 H         1.980311         0.608980        -2.225153
 H         3.406546         2.380404        -0.044879
