19
Iteration:    72charge 0 multiplicity 1
 C         0.081104        -0.420657        -0.329118
 C         1.524925        -0.101632        -0.110076
 C         2.267496        -1.125915         0.842439
 O         3.653807        -0.848566         1.034059
 C         4.119232         0.167980         0.153302
 C         3.996749        -0.272482        -1.309418
 C         2.597350         0.433366        -1.264444
 C         2.973116         1.379443        -0.181453
 O         1.723459         1.207779         0.602996
 H        -0.508927        -0.359350         0.624689
 H        -0.450621         0.367357        -0.877218
 H         0.078185        -1.436058        -0.746355
 H         1.797986        -1.013352         1.838573
 H         2.173496        -2.090725         0.419559
 H         5.008410         0.540708         0.698429
 H         4.672721         0.385821        -1.945741
 H         4.034659        -1.395247        -1.583424
 H         2.046131         0.783939        -2.191556
 H         3.355771         2.418018        -0.366567
