19
Iteration:  4171charge 0 multiplicity 1
 C         0.029060        -0.335373        -0.220720
 C         1.546436        -0.056919        -0.108431
 C         2.258874        -0.465248         1.270600
 O         3.515202         0.142244         1.342693
 C         4.113079         0.132718         0.093152
 C         3.858500        -1.165737        -0.765642
 C         2.558704        -0.414851        -1.189712
 C         3.111265         1.060170        -0.807143
 O         1.936527         1.368073        -0.162480
 H        -0.185828        -1.058381        -0.955575
 H        -0.271641        -0.733532         0.757955
 H        -0.536286         0.497657        -0.496974
 H         1.546745        -0.052923         2.022241
 H         2.304958        -1.531427         1.285293
 H         5.184613         0.530798         0.207512
 H         4.657760        -1.135602        -1.584448
 H         3.683989        -2.146491        -0.143015
 H         2.008684        -0.728937        -2.122489
 H         3.634424         1.842634        -1.459450
