19
Iteration:  3266
 C         0.138797        -0.278559        -0.390739
 C         1.564649        -0.048190        -0.060799
 C         2.245703        -0.818343         1.209031
 O         3.586913        -0.211325         1.377788
 C         4.145650         0.222703         0.072489
 C         3.793567        -0.870197        -1.047867
 C         2.525726        -0.121987        -1.270275
 C         3.043059         1.149529        -0.631428
 O         1.868647         1.316137         0.221037
 H        -0.139718        -1.340119        -0.430230
 H        -0.517674         0.047297         0.400379
 H        -0.125507         0.161371        -1.304118
 H         1.737056        -0.534163         2.114443
 H         2.311941        -1.820782         0.771703
 H         5.176085         0.495939         0.129211
 H         4.399527        -0.663419        -1.926347
 H         3.989908        -1.980543        -0.848842
 H         2.107277        -0.218709        -2.231224
 H         3.251358         2.051602        -1.141281
