19
Iteration:   421
 C         0.048980        -0.388135        -0.387888
 C         1.532767        -0.061554        -0.109632
 C         2.295160        -1.145930         0.802172
 O         3.552844        -0.641449         1.193398
 C         4.109801         0.149710         0.139440
 C         3.968004        -0.402035        -1.307236
 C         2.498901         0.337399        -1.310009
 C         3.076020         1.316569        -0.183349
 O         1.822305         1.250437         0.627696
 H         0.018802        -1.323372        -1.044997
 H        -0.543691        -0.630432         0.478109
 H        -0.231418         0.455114        -1.012757
 H         1.698543        -1.367524         1.742470
 H         2.470701        -2.078570         0.317267
 H         5.116900         0.603011         0.337149
 H         4.628702         0.091043        -1.979526
 H         4.046364        -1.468892        -1.422416
 H         1.993159         0.593032        -2.352030
 H         3.404871         2.390573        -0.234660
