19
Iteration:  3262
 C         0.113367        -0.296848        -0.387825
 C         1.565247        -0.065289        -0.069080
 C         2.270827        -0.798128         1.178731
 O         3.560821        -0.202485         1.399390
 C         4.134472         0.208946         0.033905
 C         3.783369        -0.879762        -1.053482
 C         2.498632        -0.115247        -1.261954
 C         3.045701         1.151987        -0.599189
 O         1.913885         1.314729         0.232991
 H        -0.069718        -1.386482        -0.388547
 H        -0.511050         0.184049         0.375140
 H        -0.190053         0.054923        -1.452947
 H         1.693956        -0.532774         2.082213
 H         2.316793        -1.882522         0.940449
 H         5.206791         0.614037         0.105275
 H         4.521825        -0.670651        -1.845330
 H         4.028874        -1.910478        -0.873548
 H         2.147340        -0.151534        -2.330169
 H         3.284187         2.111045        -1.143111
