19
Iteration:  2138
 C         0.091652        -0.422213        -0.325404
 C         1.542344        -0.112584        -0.086662
 C         2.270265        -0.917724         1.031931
 O         3.492053        -0.200933         1.371833
 C         4.123813         0.169920         0.179142
 C         3.826159        -0.857855        -1.049102
 C         2.572862         0.044470        -1.316750
 C         3.077107         1.233054        -0.576437
 O         1.914374         1.406086         0.216982
 H        -0.480458        -0.176145         0.571387
 H        -0.268526         0.207074        -1.121027
 H         0.042897        -1.432774        -0.659332
 H         1.567700        -1.034474         1.926476
 H         2.432004        -1.878099         0.675596
 H         5.133852         0.634275         0.219429
 H         4.605503        -0.806024        -1.796248
 H         3.821150        -1.936967        -0.658358
 H         1.903341         0.142002        -2.227574
 H         3.652026         2.053287        -0.955421
