19
Iteration:  4542
 C         0.118020        -0.292232        -0.179778
 C         1.568259         0.007732        -0.035155
 C         2.171847        -0.174133         1.321198
 O         3.464474         0.354959         1.334284
 C         4.059194         0.203010         0.084684
 C         3.829440        -1.212219        -0.501204
 C         2.593574        -0.684099        -1.102581
 C         3.115321         0.745939        -0.989859
 O         2.010607         1.294001        -0.449297
 H         0.038342        -1.351522        -0.009417
 H        -0.553892         0.163106         0.650017
 H        -0.212548         0.090948        -1.198582
 H         1.521240         0.334605         2.000242
 H         2.117054        -1.326105         1.533349
 H         5.015835         0.650409         0.226547
 H         4.525467        -1.568274        -1.209524
 H         3.734016        -2.114898         0.158493
 H         2.185955        -1.065033        -2.015709
 H         3.526732         1.385481        -1.813256
