19
Iteration:  4078charge 0 multiplicity 1
 C         0.122739        -0.344904        -0.250823
 C         1.602406        -0.036308        -0.003740
 C         2.156167        -0.520921         1.317211
 O         3.530529        -0.009721         1.407969
 C         4.148655         0.147665         0.021362
 C         3.821038        -1.048963        -0.837967
 C         2.611648        -0.355769        -1.262664
 C         3.091919         1.063254        -0.831495
 O         1.877905         1.414543        -0.113806
 H        -0.548103        -0.307187         0.640314
 H        -0.279099         0.400567        -0.944412
 H         0.078839        -1.454215        -0.636069
 H         1.701135        -0.093213         2.238648
 H         2.121671        -1.682717         1.428427
 H         5.182274         0.441372         0.111599
 H         4.527531        -1.149493        -1.723610
 H         3.509899        -1.976789        -0.303747
 H         2.094993        -0.660500        -2.173651
 H         3.388261         1.861553        -1.502674
