19
Iteration:  4288charge 0 multiplicity 1
 C         0.073798        -0.312589        -0.160104
 C         1.561564        -0.056168        -0.049089
 C         2.190597        -0.461872         1.379340
 O         3.437422         0.238594         1.401838
 C         4.143027         0.197195         0.130460
 C         3.831330        -1.202496        -0.753934
 C         2.617056        -0.466456        -1.216369
 C         3.187186         0.938579        -0.949089
 O         1.912754         1.376498        -0.289327
 H        -0.495891         0.132437         0.748902
 H        -0.239400         0.118991        -1.218621
 H        -0.199724        -1.392256        -0.194716
 H         1.577853        -0.028481         2.117640
 H         2.354574        -1.551469         1.344754
 H         5.248794         0.597830         0.188120
 H         4.483366        -1.350408        -1.569120
 H         3.762175        -2.169784        -0.319590
 H         2.225091        -0.869982        -2.117198
 H         3.389682         1.746635        -1.694662
