19
Iteration:  1520
 C         0.147417        -0.399410        -0.447477
 C         1.611538        -0.027388        -0.084304
 C         2.280204        -0.887606         1.094535
 O         3.540255        -0.291784         1.300103
 C         4.093865         0.204141         0.109241
 C         3.795019        -0.808853        -1.019626
 C         2.496031         0.004237        -1.305046
 C         2.998878         1.247819        -0.529451
 O         1.919507         1.310178         0.307351
 H        -0.264139         0.528938        -1.000447
 H         0.205435        -1.276911        -1.014404
 H        -0.461110        -0.379564         0.446888
 H         1.743768        -0.850798         2.077463
 H         2.421806        -1.968968         0.807722
 H         5.088914         0.463101         0.521071
 H         4.579933        -0.660780        -1.783402
 H         3.662039        -1.844952        -0.818407
 H         2.021161         0.085461        -2.423947
 H         3.533250         2.307083        -0.670565
