19
Iteration:   379
 C         0.149642        -0.386037        -0.470615
 C         1.638324        -0.114113        -0.070894
 C         2.310421        -1.226489         0.783453
 O         3.582013        -0.656091         1.197073
 C         4.080701         0.209923         0.068800
 C         3.797389        -0.404576        -1.271940
 C         2.562768         0.414880        -1.270501
 C         3.015147         1.404327        -0.160760
 O         1.813958         1.216853         0.619663
 H        -0.136759        -1.480472        -0.324206
 H        -0.623454         0.248005         0.195214
 H         0.020446        -0.258518        -1.480928
 H         1.651296        -1.073567         1.755833
 H         2.277266        -2.231934         0.427942
 H         5.095952         0.303871         0.409404
 H         4.557092        -0.194131        -2.040508
 H         3.695951        -1.453019        -1.223272
 H         1.959701         0.665798        -2.243757
 H         3.479896         2.408472        -0.149484
