19
Iteration:  4865charge 0 multiplicity 1
 C         0.140938        -0.262725        -0.088430
 C         1.601669         0.024029        -0.065040
 C         2.048493         0.054787         1.347614
 O         3.411010         0.563201         1.320440
 C         4.134241         0.157289         0.121767
 C         3.887496        -1.332680        -0.300578
 C         2.585592        -0.832198        -0.954780
 C         3.163752         0.499664        -1.224274
 O         1.984046         1.299803        -0.664271
 H        -0.319580         0.803904        -0.090536
 H        -0.168731        -0.730182        -1.101388
 H        -0.144702        -0.859183         0.816685
 H         1.444662         0.647260         2.035011
 H         1.944911        -0.955232         1.713813
 H         5.135629         0.614304         0.129636
 H         4.556895        -1.621035        -1.167418
 H         3.860636        -2.112870         0.475051
 H         2.075126        -1.610045        -1.630713
 H         3.514268         1.030195        -2.073508
