19
Iteration:  4963
 C         0.055673        -0.286904        -0.067361
 C         1.549053        -0.026353        -0.084185
 C         2.124136         0.185230         1.343854
 O         3.468392         0.620142         1.303707
 C         4.113935         0.085951         0.184413
 C         3.891326        -1.300310        -0.208066
 C         2.586035        -0.873554        -0.925899
 C         3.188935         0.469019        -1.167213
 O         1.944008         1.288444        -0.859333
 H        -0.088876        -1.323409        -0.414456
 H        -0.282941        -0.104355         0.970002
 H        -0.442294         0.375100        -0.713125
 H         1.550528         0.922455         1.916330
 H         1.863929        -0.783573         1.927150
 H         5.131598         0.397289         0.417851
 H         4.676601        -1.496431        -1.070743
 H         3.984616        -2.240200         0.413292
 H         2.038968        -1.360989        -1.812184
 H         3.824247         0.754112        -2.016701
