19
Iteration:  1364charge 0 multiplicity 1
 C         0.158898        -0.400773        -0.447117
 C         1.527763        -0.069477        -0.068990
 C         2.230009        -0.879237         1.038613
 O         3.625292        -0.437154         1.316051
 C         4.115030         0.212930         0.149418
 C         3.841488        -0.735558        -1.096658
 C         2.525039         0.054142        -1.319459
 C         3.048261         1.261431        -0.481597
 O         1.841054         1.372514         0.351253
 H         0.269369        -1.260433        -0.994312
 H        -0.361813        -0.686046         0.473678
 H        -0.345617         0.482489        -0.866197
 H         1.676218        -0.547329         1.881519
 H         2.157134        -2.004922         0.925765
 H         5.104184         0.508045         0.502178
 H         4.494647        -0.581640        -1.975788
 H         3.715983        -1.797521        -0.867086
 H         2.085950         0.021001        -2.400735
 H         3.350033         2.270092        -0.966803
