19
Iteration:   192
 C         0.206468        -0.311336        -0.269848
 C         1.623345        -0.118537        -0.154098
 C         2.233242        -1.225333         0.729780
 O         3.533164        -0.798791         1.083964
 C         4.125028         0.228447         0.242651
 C         3.932342        -0.187171        -1.214975
 C         2.529588         0.295047        -1.251490
 C         2.980740         1.354068        -0.241333
 O         1.775317         1.181026         0.554041
 H        -0.136768        -0.190100         0.840449
 H        -0.304918         0.488882        -0.878473
 H        -0.194125        -1.337171        -0.484233
 H         1.529772        -1.456205         1.640779
 H         2.246004        -2.092194        -0.001215
 H         5.137439         0.482656         0.645042
 H         4.542505         0.517743        -1.928638
 H         4.285731        -1.233658        -1.555725
 H         2.165985         0.530523        -2.331969
 H         3.184598         2.422137        -0.560850
