19
Iteration:  1768
 C         0.161528        -0.330316        -0.410463
 C         1.609858        -0.138605        -0.020856
 C         2.285518        -0.947974         1.090486
 O         3.494391        -0.199203         1.320723
 C         4.049569         0.156044         0.080799
 C         3.819340        -0.760229        -1.062193
 C         2.567913         0.008067        -1.320858
 C         3.047544         1.222855        -0.518464
 O         1.875393         1.338453         0.273638
 H        -0.286207         0.536733         0.150741
 H         0.002303        -0.101846        -1.428946
 H        -0.202511        -1.281531         0.075834
 H         1.506539        -1.076060         2.059248
 H         2.604977        -1.923147         0.795686
 H         5.147416         0.499867         0.337336
 H         4.557066        -0.798419        -1.885737
 H         3.638747        -1.787700        -0.840037
 H         2.081708        -0.269873        -2.294235
 H         3.499377         2.153065        -0.865310
