19
Iteration:  3857charge 0 multiplicity 1
 C         0.118641        -0.252831        -0.284554
 C         1.658868        -0.107583        -0.036216
 C         2.187551        -0.573407         1.264886
 O         3.520192        -0.137348         1.377155
 C         4.093056         0.176672         0.066096
 C         3.937636        -0.900978        -0.985998
 C         2.511420        -0.290747        -1.290476
 C         3.043072         1.041945        -0.763311
 O         1.848055         1.353204         0.092334
 H        -0.329605        -1.182424         0.112084
 H        -0.354806         0.597395         0.173698
 H        -0.030199        -0.249577        -1.404138
 H         1.733076        -0.102628         2.192277
 H         2.203166        -1.780539         1.214118
 H         5.094872         0.385057         0.243606
 H         4.685207        -0.957748        -1.912875
 H         4.062474        -1.949805        -0.597558
 H         2.011113        -0.534913        -2.232789
 H         3.391597         1.901741        -1.274353
