19
Iteration:   188charge 0 multiplicity 1
 C         0.190473        -0.304197        -0.279827
 C         1.641738        -0.102254        -0.122105
 C         2.224460        -1.245496         0.704591
 O         3.523936        -0.767218         1.097805
 C         4.085552         0.251271         0.260469
 C         3.938683        -0.204122        -1.271874
 C         2.529479         0.271876        -1.269249
 C         3.016616         1.366729        -0.236706
 O         1.793394         1.160746         0.573388
 H        -0.131675        -0.161043         0.702120
 H        -0.342504         0.449212        -0.730457
 H        -0.213587        -1.335436        -0.599756
 H         1.652047        -1.488859         1.632873
 H         2.325599        -2.121967         0.002546
 H         5.079542         0.557605         0.671453
 H         4.498540         0.429750        -1.824550
 H         4.151936        -1.239000        -1.515519
 H         2.212899         0.490541        -2.291004
 H         3.127688         2.388971        -0.529357
