19
Iteration:  3896
 C         0.082947        -0.356100        -0.203051
 C         1.455550         0.008139        -0.018697
 C         2.200942        -0.566422         1.191116
 O         3.585266        -0.216979         1.377061
 C         4.182429         0.148663         0.087890
 C         3.925027        -0.927322        -0.885923
 C         2.553474        -0.341014        -1.297373
 C         3.068550         1.037678        -0.732332
 O         1.843604         1.505912        -0.062788
 H        -0.064028        -1.351301        -0.733455
 H        -0.372230        -0.272874         0.857276
 H        -0.450502         0.332183        -0.835782
 H         1.658355        -0.355254         2.103612
 H         2.133261        -1.615254         0.955336
 H         5.236866         0.611185         0.290184
 H         4.587201        -0.844537        -1.666784
 H         3.984439        -1.898155        -0.400001
 H         2.123036        -0.411110        -2.298035
 H         3.637271         1.837563        -1.334548
