19
Iteration:  4773charge 0 multiplicity 1
 C        -0.008009        -0.394789        -0.190658
 C         1.558568        -0.002163        -0.098254
 C         2.164276         0.027366         1.317772
 O         3.504347         0.569181         1.324863
 C         4.091530         0.070384         0.055203
 C         3.799605        -1.308131        -0.305187
 C         2.568741        -0.792882        -0.972734
 C         3.173005         0.706855        -1.117717
 O         2.055536         1.321688        -0.563323
 H        -0.176637        -1.385311        -0.644143
 H        -0.305887        -0.528155         0.823538
 H        -0.620735         0.364698        -0.675986
 H         1.660540         0.666918         2.009611
 H         2.127253        -0.921041         1.798608
 H         5.098118         0.544868         0.079673
 H         4.469852        -1.583716        -1.154214
 H         3.760678        -2.237669         0.470162
 H         1.963239        -1.430056        -1.614624
 H         3.861886         1.292441        -1.896753
