19
Iteration:  2575charge 0 multiplicity 1
 C         0.037864        -0.325719        -0.383853
 C         1.481178        -0.112083        -0.073195
 C         2.115749        -0.764366         1.202256
 O         3.640397        -0.478739         1.219658
 C         4.054874         0.214425         0.118841
 C         4.031293        -0.593154        -1.189606
 C         2.547245        -0.022384        -1.317769
 C         3.024334         1.152778        -0.459993
 O         1.920686         1.268790         0.330755
 H        -0.151827        -0.137903        -1.478596
 H        -0.439287        -1.287918        -0.083434
 H        -0.500866         0.467738         0.023717
 H         1.936383        -0.226799         2.102605
 H         2.091055        -1.893806         1.296623
 H         5.040595         0.442749         0.363662
 H         4.658723        -0.207835        -2.038606
 H         4.287188        -1.702042        -0.991993
 H         2.133928        -0.081831        -2.267115
 H         3.420892         2.074330        -0.818569
