19
Iteration:   488charge 0 multiplicity 1
 C         0.071656        -0.390140        -0.336000
 C         1.548458        -0.110904        -0.122718
 C         2.206397        -1.087623         0.825796
 O         3.596826        -0.651095         1.171656
 C         4.179564         0.222082         0.179845
 C         3.952933        -0.426088        -1.315755
 C         2.526463         0.320978        -1.268910
 C         3.091796         1.323319        -0.194336
 O         1.779685         1.199025         0.529387
 H        -0.131234        -0.194890        -1.390111
 H        -0.386947        -1.390527        -0.275434
 H        -0.401653         0.289059         0.238960
 H         1.607519        -1.031461         1.813505
 H         2.108331        -2.153146         0.514724
 H         5.145148         0.425069         0.659184
 H         4.418382         0.181409        -2.086236
 H         4.157254        -1.431137        -1.362570
 H         2.034254         0.665884        -2.343867
 H         3.462670         2.329551        -0.516557
