19
Iteration:  3611charge 0 multiplicity 1
 C         0.133893        -0.316440        -0.385221
 C         1.598276        -0.091098        -0.006304
 C         2.226113        -0.623242         1.303304
 O         3.566443        -0.061652         1.297986
 C         4.107420         0.225100         0.072756
 C         3.802438        -0.964435        -0.895425
 C         2.516188        -0.237999        -1.202608
 C         3.038815         1.056516        -0.761874
 O         1.922943         1.320476         0.038778
 H         0.014640        -1.144446        -1.092774
 H        -0.473981        -0.466842         0.453074
 H        -0.310501         0.613211        -0.787505
 H         1.713513        -0.229702         2.217335
 H         2.352166        -1.750085         1.300140
 H         5.122064         0.620851         0.443783
 H         4.606797        -1.089134        -1.744450
 H         3.635127        -1.939401        -0.303179
 H         2.054587        -0.487405        -2.163854
 H         3.344149         1.849737        -1.539166
