19
Iteration:  3584charge 0 multiplicity 1
 C         0.055321        -0.383213        -0.169793
 C         1.627479        -0.097961        -0.115451
 C         2.170530        -0.586143         1.171686
 O         3.528304        -0.008957         1.432350
 C         4.076278         0.140619         0.098649
 C         3.869306        -1.007206        -0.994577
 C         2.605102        -0.232850        -1.324870
 C         3.095837         1.060660        -0.710916
 O         1.918124         1.404836        -0.011575
 H        -0.264062        -1.420346        -0.440484
 H        -0.435426        -0.154824         0.871355
 H        -0.423239         0.406519        -0.759724
 H         1.432637        -0.524161         1.972746
 H         2.232846        -1.656758         1.197593
 H         5.004117         0.532986         0.392595
 H         4.667254        -0.780426        -1.614680
 H         3.845152        -2.008830        -0.600565
 H         2.189463        -0.572933        -2.275983
 H         3.577633         1.821001        -1.268455
