19
Iteration:  3820charge 0 multiplicity 1
 C         0.070386        -0.368545        -0.209209
 C         1.581794        -0.030646        -0.073421
 C         2.234616        -0.702190         1.209894
 O         3.518628        -0.122629         1.394480
 C         4.162250         0.159508         0.103794
 C         3.828710        -0.909553        -0.914739
 C         2.544784        -0.199916        -1.294465
 C         3.156684         1.160900        -0.754999
 O         1.878484         1.363891        -0.029818
 H        -0.223290        -1.018431         0.605501
 H        -0.545097         0.552449        -0.083677
 H        -0.229221        -0.697396        -1.169626
 H         1.541050        -0.680790         2.038648
 H         2.187313        -1.801120         0.972640
 H         5.250964         0.390537         0.430445
 H         4.438734        -1.013202        -1.749996
 H         3.683987        -1.770341        -0.313786
 H         1.977882        -0.351165        -2.207764
 H         3.581059         1.916268        -1.493401
