19
Iteration:  3056
 C         0.055160        -0.259046        -0.270541
 C         1.572495        -0.079462        -0.021548
 C         2.198276        -0.763844         1.107031
 O         3.576317        -0.418504         1.357781
 C         4.113368         0.138583         0.126850
 C         3.975043        -0.683195        -1.169483
 C         2.597665        -0.093883        -1.320948
 C         3.007817         1.138479        -0.493415
 O         1.823055         1.343773         0.173109
 H        -0.399107         0.698819        -0.226262
 H        -0.084509        -0.659458        -1.261945
 H        -0.340964        -1.072763         0.411922
 H         1.615530        -0.470018         1.985874
 H         2.269612        -1.804883         0.960564
 H         5.131643         0.672997         0.242452
 H         4.622923        -0.300266        -2.009940
 H         4.046918        -1.827955        -1.027334
 H         2.207669        -0.195945        -2.331220
 H         3.265593         2.069435        -1.055946
