19
Iteration:  1347
 C         0.075071        -0.419142        -0.297792
 C         1.597371        -0.062673        -0.105262
 C         2.165845        -0.822591         1.083181
 O         3.553994        -0.501922         1.279852
 C         4.075713         0.176300         0.118508
 C         3.939937        -0.637055        -1.117716
 C         2.607035         0.073647        -1.312891
 C         3.092726         1.225180        -0.429453
 O         1.811908         1.341514         0.223215
 H         0.023764        -1.590928        -0.610264
 H        -0.573904        -0.238817         0.571238
 H        -0.260323         0.247755        -1.144134
 H         1.817540        -0.697347         2.199767
 H         2.228158        -1.885658         0.877835
 H         5.089269         0.570165         0.290338
 H         4.625043        -0.379918        -1.956131
 H         3.973650        -1.736720        -1.026838
 H         2.030343         0.365345        -2.192311
 H         3.509412         2.195061        -0.648879
