19
Iteration:  4345charge 0 multiplicity 1
 C         0.110641        -0.361482        -0.194769
 C         1.553712        -0.021954         0.007278
 C         2.180942        -0.258734         1.389977
 O         3.485323         0.106111         1.382792
 C         4.088510         0.122229         0.089615
 C         3.937058        -1.132910        -0.683668
 C         2.548089        -0.494881        -1.216376
 C         3.111712         0.898332        -0.930172
 O         1.927819         1.361997        -0.373057
 H        -0.272805        -1.342909         0.152853
 H        -0.541256         0.418955         0.359628
 H        -0.013974        -0.260874        -1.300457
 H         1.563920         0.351925         2.065245
 H         1.967342        -1.257676         1.863753
 H         5.157559         0.483299         0.066985
 H         4.641736        -1.175725        -1.438568
 H         3.979946        -2.007129        -0.009840
 H         2.039203        -0.721347        -2.150510
 H         3.465895         1.714851        -1.653436
