19
Iteration:  4831charge 0 multiplicity 1
 C        -0.004340        -0.208204        -0.083528
 C         1.528382        -0.034898        -0.115631
 C         2.150883         0.069786         1.328879
 O         3.573891         0.459751         1.433826
 C         4.168132         0.156986         0.154626
 C         3.902127        -1.287012        -0.289362
 C         2.652392        -0.839099        -1.077230
 C         3.133940         0.571235        -1.125753
 O         1.863962         1.280432        -0.745655
 H        -0.434537         0.382388        -0.984812
 H        -0.297051        -1.305750        -0.213585
 H        -0.549773         0.113263         0.836196
 H         1.673626         0.877996         1.845750
 H         1.958170        -0.879822         1.770890
 H         5.105637         0.734355         0.177084
 H         4.711158        -1.810947        -0.863531
 H         3.636291        -2.002570         0.561403
 H         2.190324        -1.406640        -1.974679
 H         3.591340         1.017026        -2.028444
