19
Iteration:  3931charge 0 multiplicity 1
 C         0.135575        -0.428864        -0.182892
 C         1.640480        -0.142926        -0.087520
 C         2.145615        -0.612906         1.306465
 O         3.469200        -0.006701         1.388076
 C         4.124145         0.145714         0.085497
 C         3.769509        -0.928866        -0.927315
 C         2.519427        -0.153105        -1.434790
 C         3.138616         1.047879        -0.717902
 O         1.981233         1.386133        -0.044249
 H        -0.297852        -1.034164        -0.989802
 H        -0.332040        -0.959021         0.736062
 H        -0.172767         0.620741        -0.129773
 H         1.494230        -0.320822         2.152055
 H         2.246221        -1.659492         1.393847
 H         5.202713         0.349561         0.299897
 H         4.597161        -1.164637        -1.545055
 H         3.551870        -1.883796        -0.541733
 H         2.199441        -0.352074        -2.456530
 H         3.589420         1.913536        -1.257639
