19
Iteration:  1798charge 0 multiplicity 1
 C         0.041033        -0.430410        -0.287364
 C         1.571723        -0.031591        -0.098956
 C         2.170797        -0.777626         1.020590
 O         3.582333        -0.420898         1.336570
 C         4.142892         0.149242         0.192045
 C         3.917074        -0.677212        -1.062677
 C         2.562478         0.010060        -1.292352
 C         3.060496         1.187788        -0.538356
 O         1.858273         1.399346         0.178657
 H        -0.449558         0.200891         0.383293
 H        -0.294961        -0.420928        -1.339438
 H        -0.076933        -1.417386         0.251466
 H         1.533300        -0.580826         1.829065
 H         2.350817        -1.852523         0.900416
 H         5.182868         0.488723         0.465223
 H         4.584999        -0.570851        -1.845196
 H         3.858920        -1.773715        -0.940615
 H         2.221465        -0.219005        -2.388278
 H         3.405396         2.022754        -1.081062
