19
Iteration:  2608charge 0 multiplicity 1
 C         0.147951        -0.346825        -0.271622
 C         1.555869        -0.060155        -0.064073
 C         2.229282        -0.945167         1.068132
 O         3.588658        -0.472578         1.285405
 C         4.072797         0.167080         0.181237
 C         3.942508        -0.638037        -1.121780
 C         2.542287        -0.000924        -1.286940
 C         3.028754         1.252202        -0.491971
 O         1.836387         1.419286         0.189562
 H        -0.145021        -0.561145        -1.346626
 H        -0.431113        -1.104315         0.341476
 H        -0.306756         0.540521         0.053233
 H         1.557758        -0.937190         1.958257
 H         2.037083        -2.076276         0.729916
 H         5.067619         0.536796         0.301663
 H         4.662775        -0.364961        -1.964791
 H         3.979271        -1.808401        -1.026106
 H         2.064415         0.029825        -2.223155
 H         3.446230         2.150878        -0.903868
