19
Iteration:  2027
 C         0.134005        -0.344336        -0.273708
 C         1.609329        -0.055131        -0.095267
 C         2.258875        -0.936669         0.991213
 O         3.475756        -0.261057         1.408060
 C         4.047609         0.179088         0.096391
 C         3.858174        -0.821556        -1.007678
 C         2.558898         0.012206        -1.376323
 C         3.081893         1.283482        -0.588271
 O         1.892190         1.338896         0.215524
 H        -0.579809        -0.011928         0.471807
 H        -0.229825         0.090345        -1.185395
 H        -0.036927        -1.485162        -0.248953
 H         1.720666        -1.044286         2.048745
 H         2.472668        -1.965491         0.909715
 H         5.103337         0.444310         0.229329
 H         4.827798        -0.741430        -1.533463
 H         3.769182        -1.970811        -0.638488
 H         2.049179         0.063580        -2.368195
 H         3.392806         2.268852        -0.947005
