19
Iteration:    57charge 0 multiplicity 1
 C         0.152276        -0.306072        -0.294487
 C         1.668571        -0.116340        -0.077642
 C         2.233331        -1.233274         0.753153
 O         3.626403        -0.812266         1.133255
 C         4.092379         0.251987         0.169067
 C         3.939329        -0.260102        -1.321145
 C         2.560507         0.363461        -1.350869
 C         2.890980         1.428609        -0.152824
 O         1.765661         1.160497         0.585288
 H        -0.365327        -0.138505         0.611653
 H        -0.218282         0.430354        -0.966557
 H        -0.127129        -1.424613        -0.631424
 H         1.660197        -1.364664         1.713530
 H         2.317199        -2.194625         0.191041
 H         5.141577         0.492528         0.373660
 H         4.628567         0.129502        -2.009287
 H         4.047828        -1.377260        -1.383013
 H         2.051201         0.538011        -2.314999
 H         3.106387         2.472436        -0.102343
