19
Iteration:  2854
 C         0.103677        -0.420987        -0.234101
 C         1.557842        -0.020552        -0.090973
 C         2.166204        -0.841765         1.025680
 O         3.574875        -0.467388         1.265441
 C         4.110377         0.237769         0.165163
 C         3.949131        -0.759048        -1.130673
 C         2.596386        -0.019810        -1.285110
 C         3.061282         1.226365        -0.457930
 O         1.826639         1.417703         0.201251
 H        -0.394259        -0.237034        -1.214579
 H        -0.097501        -1.436841         0.019448
 H        -0.429045         0.251460         0.471087
 H         1.650614        -0.517570         1.953553
 H         2.062739        -1.933258         0.894648
 H         5.097105         0.555454         0.476322
 H         4.587633        -0.509991        -2.030612
 H         4.012877        -1.819611        -0.861026
 H         2.151135         0.237504        -2.297529
 H         3.361231         2.070580        -1.110546
