19
Iteration:  3314charge 0 multiplicity 1
 C         0.035354        -0.382382        -0.139401
 C         1.530950        -0.023659        -0.074049
 C         2.145194        -0.689660         1.094214
 O         3.526631        -0.324998         1.318743
 C         4.190256         0.149508         0.188065
 C         3.929245        -0.766638        -1.063433
 C         2.552862        -0.141170        -1.281439
 C         3.112808         1.161681        -0.700434
 O         1.890946         1.352037         0.088226
 H        -0.242733        -1.011932        -0.981799
 H        -0.281580        -0.989187         0.769356
 H        -0.556416         0.570204        -0.186919
 H         1.632993        -0.252549         1.974714
 H         2.160299        -1.795535         0.935514
 H         5.065122         0.762481         0.431690
 H         4.865015        -0.613013        -1.642965
 H         3.941018        -1.826912        -0.857102
 H         2.158461        -0.338780        -2.347483
 H         3.580083         2.061636        -1.221231
