19
Iteration:   751
 C         0.105768        -0.352687        -0.395933
 C         1.560571        -0.095643        -0.106201
 C         2.266337        -0.984864         0.877961
 O         3.518006        -0.432598         1.263363
 C         4.166731         0.173898         0.149607
 C         3.874386        -0.566861        -1.174986
 C         2.525684         0.154514        -1.343229
 C         3.031717         1.212297        -0.327074
 O         1.847234         1.237009         0.494720
 H        -0.107819        -0.603368        -1.456107
 H        -0.476332        -1.073049         0.388467
 H        -0.362674         0.641219        -0.261222
 H         1.742235        -1.116349         1.749169
 H         2.502197        -1.970802         0.423523
 H         5.150767         0.600757         0.373990
 H         4.673077        -0.041570        -1.904427
 H         4.058118        -1.641146        -1.073387
 H         2.122552         0.287894        -2.230776
 H         3.439507         2.240537        -0.617080
