19
Iteration:  1744charge 0 multiplicity 1
 C         0.061221        -0.288249        -0.361746
 C         1.537310        -0.101879        -0.083189
 C         2.221466        -0.823693         1.060981
 O         3.574090        -0.287860         1.364754
 C         4.108146         0.221601         0.125826
 C         3.944290        -0.781467        -1.054879
 C         2.511110        -0.031294        -1.317115
 C         3.062606         1.171780        -0.593259
 O         1.879250         1.247107         0.301913
 H        -0.498056         0.320808         0.278016
 H        -0.116127         0.128027        -1.381117
 H        -0.118320        -1.387222        -0.177695
 H         1.451060        -0.737873         1.969097
 H         2.493295        -1.840992         0.915480
 H         5.106365         0.747595         0.370956
 H         4.504901        -0.548031        -1.889564
 H         3.980945        -1.864024        -0.940631
 H         2.239935        -0.007323        -2.468670
 H         3.312571         2.127042        -0.982258
