19
Iteration:  3120charge 0 multiplicity 1
 C         0.136595        -0.349992        -0.325321
 C         1.546297        -0.068354        -0.090523
 C         2.296694        -0.844757         1.035394
 O         3.618522        -0.314874         1.335702
 C         4.089146         0.136133         0.081106
 C         3.772178        -0.842995        -1.020966
 C         2.571436         0.018647        -1.216551
 C         3.050206         1.222624        -0.511259
 O         1.831550         1.404002         0.165943
 H        -0.486440         0.412647         0.100823
 H        -0.175999        -0.416481        -1.365557
 H        -0.231844        -1.273996         0.211394
 H         1.749351        -0.835653         2.002642
 H         2.355324        -1.960955         0.659934
 H         5.088907         0.574457         0.380215
 H         4.571306        -0.824337        -1.786942
 H         3.835444        -1.889067        -0.738691
 H         1.981135         0.146062        -2.163138
 H         3.525821         2.081613        -1.076039
