19
Iteration:  2506
 C         0.087001        -0.403660        -0.220198
 C         1.598158        -0.099159        -0.117580
 C         2.220589        -0.895155         0.977894
 O         3.484166        -0.288578         1.367712
 C         4.130086         0.137645         0.203882
 C         3.799459        -0.710164        -1.081149
 C         2.549835         0.048397        -1.396143
 C         3.105691         1.239088        -0.564174
 O         1.958748         1.347984         0.262151
 H        -0.672075         0.346996        -0.380976
 H        -0.072200        -1.112477        -1.043912
 H        -0.363349        -1.040912         0.602067
 H         1.500941        -0.837771         1.777334
 H         2.406742        -1.920961         0.539892
 H         5.070742         0.527713         0.455616
 H         4.596218        -0.755768        -1.914737
 H         3.925627        -1.752988        -0.786770
 H         2.085678         0.262719        -2.375422
 H         3.511444         2.225122        -0.904060
