19
Iteration:  2006
 C         0.128454        -0.344594        -0.368852
 C         1.565769        -0.088625        -0.123488
 C         2.263680        -0.885946         1.058292
 O         3.514030        -0.216739         1.374628
 C         4.140646         0.223566         0.178307
 C         3.840193        -0.787001        -1.112659
 C         2.501000        -0.059254        -1.299941
 C         3.064956         1.184275        -0.502277
 O         1.891691         1.321427         0.257220
 H        -0.460018         0.327731         0.263551
 H        -0.153511        -0.100151        -1.370585
 H        -0.366324        -1.310960        -0.084284
 H         1.760219        -0.954742         2.006856
 H         2.494882        -1.911803         0.706071
 H         5.133663         0.710270         0.380184
 H         4.693405        -0.699035        -1.795246
 H         3.579030        -1.965427        -1.076078
 H         2.210507         0.002683        -2.382925
 H         3.522926         2.012922        -1.029960
