19
Iteration:  1341
 C         0.076371        -0.433183        -0.281577
 C         1.541744        -0.118971        -0.076946
 C         2.191601        -0.818325         1.071339
 O         3.534085        -0.509661         1.290991
 C         4.069007         0.146300         0.145417
 C         4.011504        -0.617524        -1.171625
 C         2.627940         0.081833        -1.306574
 C         3.098968         1.250204        -0.438685
 O         1.802474         1.368076         0.207036
 H        -0.034342        -1.430262        -0.314936
 H        -0.465516        -0.043683         0.612179
 H        -0.235364         0.152881        -1.108189
 H         1.708356        -0.634975         1.968349
 H         2.135310        -1.955698         0.865861
 H         5.073046         0.434089         0.498279
 H         4.629976        -0.296062        -1.997162
 H         3.904623        -1.721002        -1.100299
 H         1.944711         0.316921        -2.263221
 H         3.512007         2.244288        -0.753293
