19
Iteration:   395
 C         0.247987        -0.397118        -0.468345
 C         1.622258        -0.094612        -0.153453
 C         2.285310        -1.115047         0.805941
 O         3.541992        -0.596218         1.185869
 C         4.127476         0.169508         0.192733
 C         3.743069        -0.462274        -1.272050
 C         2.465248         0.437764        -1.281893
 C         3.044228         1.394251        -0.186843
 O         1.853486         1.117332         0.640552
 H         0.008239        -1.438471        -0.464754
 H        -0.357310         0.061822         0.309668
 H         0.026962         0.202886        -1.433080
 H         1.741665        -1.420483         1.638829
 H         2.526428        -2.121387         0.208692
 H         5.185486         0.493408         0.311355
 H         4.473157        -0.207243        -2.079587
 H         3.495402        -1.582386        -1.257844
 H         1.951961         0.695092        -2.127009
 H         3.157421         2.468814        -0.273918
