19
Iteration:  3918
 C         0.104295        -0.387173        -0.133640
 C         1.588692        -0.098955        -0.097612
 C         2.204420        -0.596186         1.190988
 O         3.477383        -0.081610         1.396625
 C         4.059493         0.166974         0.121139
 C         3.832367        -1.039290        -0.949633
 C         2.615798        -0.201303        -1.301655
 C         3.183179         1.141388        -0.791131
 O         1.900980         1.372655        -0.038430
 H        -0.147051        -1.145038        -0.968215
 H        -0.207264        -0.754080         0.927393
 H        -0.486210         0.483544        -0.370332
 H         1.598575        -0.103845         1.956883
 H         2.113215        -1.680462         1.346445
 H         5.141133         0.536703         0.351502
 H         4.502822        -0.981667        -1.737541
 H         3.647160        -2.012527        -0.513018
 H         2.014117        -0.173266        -2.214172
 H         3.676998         2.046034        -1.308900
