19
Iteration:  3271
 C         0.160937        -0.273911        -0.370295
 C         1.572752        -0.047373        -0.019316
 C         2.217702        -0.818317         1.201087
 O         3.627894        -0.226092         1.330921
 C         4.128854         0.212526         0.129744
 C         3.846748        -0.856643        -1.030522
 C         2.552069        -0.145393        -1.278844
 C         3.036924         1.149125        -0.665834
 O         1.807699         1.337815         0.194002
 H        -0.153136        -1.319029        -0.569457
 H        -0.560204        -0.013838         0.490261
 H        -0.091659         0.450936        -1.251764
 H         1.731054        -0.688120         2.214362
 H         2.309858        -1.852170         0.791202
 H         5.231344         0.402681         0.306503
 H         4.321780        -0.640523        -2.054101
 H         3.772289        -1.903285        -0.785736
 H         1.900136        -0.271239        -2.236485
 H         3.344636         2.101394        -1.218132
