19
Iteration:  2886charge 0 multiplicity 1
 C         0.135506        -0.342412        -0.269706
 C         1.573154        -0.033104        -0.115749
 C         2.294418        -1.002269         0.965117
 O         3.529374        -0.258494         1.423345
 C         4.080741         0.239002         0.174140
 C         3.771832        -0.784218        -1.134602
 C         2.547859         0.048329        -1.351701
 C         3.094375         1.199550        -0.523999
 O         1.902568         1.295970         0.254855
 H        -0.216516        -0.470277        -1.326904
 H        -0.044734        -1.233771         0.325455
 H        -0.436173         0.509779         0.197949
 H         1.568250        -1.003752         1.776669
 H         2.455983        -1.919218         0.605723
 H         5.112977         0.473299         0.414823
 H         4.549448        -0.774512        -1.928451
 H         3.802313        -1.848736        -0.866390
 H         2.095906         0.256759        -2.350754
 H         3.192271         2.206235        -0.942902
