19
Iteration:  1293
 C         0.009438        -0.305159        -0.275068
 C         1.578914        -0.103295        -0.091544
 C         2.237650        -1.038272         0.938227
 O         3.509019        -0.424710         1.242136
 C         4.150212         0.276546         0.182122
 C         3.977277        -0.667216        -1.101420
 C         2.606423         0.031370        -1.318716
 C         3.046665         1.229993        -0.470899
 O         1.836957         1.351924         0.338401
 H        -0.496290        -0.962843         0.530236
 H        -0.404023         0.672599        -0.313235
 H        -0.083190        -0.691190        -1.318643
 H         1.759789        -1.085875         1.985229
 H         2.376243        -2.121038         0.599940
 H         5.058594         0.789765         0.546450
 H         4.648814        -0.404392        -1.958101
 H         3.953938        -1.754704        -0.869902
 H         1.957872         0.164717        -2.325410
 H         3.377360         2.158235        -0.841557
