19
Iteration:   897charge 0 multiplicity 1
 C         0.119050        -0.293620        -0.478421
 C         1.582417        -0.131786        -0.050183
 C         2.304528        -1.015138         0.943785
 O         3.551309        -0.354450         1.327216
 C         4.105057         0.213308         0.104071
 C         3.826504        -0.599294        -1.168216
 C         2.473930         0.130037        -1.321602
 C         3.012468         1.207820        -0.399220
 O         1.920465         1.221545         0.510242
 H        -0.199016         0.764710        -0.815335
 H         0.051616        -1.029934        -1.339770
 H        -0.593225        -0.821288         0.280819
 H         1.634446        -1.012520         1.832507
 H         2.491480        -1.954373         0.336690
 H         5.108295         0.545304         0.435000
 H         4.652490        -0.355561        -1.987045
 H         3.837893        -1.767371        -1.125746
 H         2.059318         0.094711        -2.214623
 H         3.285155         2.214899        -0.675343
