19
Iteration:   356charge 0 multiplicity 1
 C         0.082090        -0.394826        -0.376413
 C         1.544328        -0.041572        -0.074831
 C         2.257065        -1.018391         0.766190
 O         3.626291        -0.771048         1.140654
 C         4.155233         0.172900         0.160257
 C         3.976342        -0.306210        -1.284527
 C         2.493047         0.270044        -1.268073
 C         3.043199         1.294190        -0.182549
 O         1.758892         1.209914         0.585320
 H        -0.276137        -1.429798        -0.006725
 H        -0.586631         0.427906         0.071490
 H        -0.129818        -0.481813        -1.427414
 H         1.622310        -1.121204         1.746636
 H         2.295537        -1.938898         0.230922
 H         4.998807         0.490627         0.795110
 H         4.550907         0.281003        -1.970945
 H         4.194480        -1.313306        -1.582577
 H         1.971707         0.763822        -2.216719
 H         3.544262         2.259001        -0.451826
