19
Iteration:  1787
 C         0.114467        -0.379573        -0.299878
 C         1.579219        -0.024725        -0.079599
 C         2.266633        -0.890837         1.042295
 O         3.545184        -0.330344         1.369490
 C         4.099327         0.222933         0.163796
 C         3.856965        -0.821871        -1.088690
 C         2.572012        -0.011695        -1.330718
 C         3.067433         1.225225        -0.535097
 O         1.844565         1.369629         0.210523
 H        -0.554950         0.341082         0.075210
 H        -0.097364        -0.352166        -1.394649
 H        -0.081131        -1.419056         0.089752
 H         1.672309        -0.800775         1.936346
 H         2.147062        -1.911536         0.668692
 H         5.146326         0.520412         0.435900
 H         4.575690        -0.580578        -1.799840
 H         3.904591        -1.884166        -0.833577
 H         1.887587         0.220316        -2.245671
 H         3.456203         2.098135        -1.000897
