19
Iteration:  4098
 C        -0.000881        -0.342381        -0.245134
 C         1.510417        -0.102852        -0.098047
 C         2.213936        -0.412450         1.308336
 O         3.587209         0.005368         1.378039
 C         4.087046         0.174139         0.149280
 C         3.929445        -1.036420        -0.865289
 C         2.506844        -0.372728        -1.253967
 C         3.141420         0.949197        -0.822618
 O         1.964293         1.372928        -0.109537
 H        -0.459667        -0.749995         0.709142
 H        -0.527890         0.670072        -0.372302
 H        -0.228964        -1.208234        -1.090656
 H         1.545204         0.188620         2.032066
 H         2.068795        -1.575988         1.538058
 H         5.005803         0.600517         0.392994
 H         4.570817        -0.910098        -1.824013
 H         4.073727        -2.053789        -0.445385
 H         1.954691        -0.376065        -2.248054
 H         3.486112         1.781982        -1.396081
