19
Iteration:  1681
 C         0.099745        -0.451457        -0.263188
 C         1.531968        -0.074377        -0.138645
 C         2.214916        -0.746793         1.130374
 O         3.560310        -0.417394         1.326460
 C         4.096195         0.161145         0.149807
 C         3.926922        -0.794016        -1.058975
 C         2.564500        -0.000206        -1.348149
 C         3.072176         1.238670        -0.514525
 O         1.844043         1.436511         0.150206
 H        -0.355728        -0.996689         0.609174
 H        -0.475773         0.367451        -0.644221
 H        -0.186395        -1.135348        -1.128461
 H         1.658538        -0.227465         2.063405
 H         2.086700        -1.869681         1.157456
 H         5.093933         0.553375         0.577475
 H         4.612710        -0.518835        -1.977939
 H         4.167370        -1.861597        -0.935704
 H         2.151900        -0.017685        -2.264388
 H         3.662705         2.097317        -0.893069
