19
Iteration:  1808charge 0 multiplicity 1
 C         0.073760        -0.438811        -0.207525
 C         1.520548        -0.080257        -0.170062
 C         2.145086        -0.751677         1.104002
 O         3.550379        -0.462624         1.309839
 C         4.151806         0.167173         0.171604
 C         3.962115        -0.685558        -1.060641
 C         2.597328        -0.058561        -1.319235
 C         3.111505         1.240349        -0.562362
 O         1.840221         1.421519         0.172299
 H        -0.529145         0.208960         0.349826
 H        -0.451452        -0.398835        -1.208623
 H        -0.115957        -1.504440        -0.002965
 H         1.740527        -0.513295         1.997471
 H         1.914818        -1.902747         0.905343
 H         5.140970         0.558238         0.422368
 H         4.564220        -0.295771        -1.843243
 H         3.994896        -1.799509        -0.889240
 H         2.154103         0.106909        -2.383983
 H         3.557243         2.175970        -0.859150
