19
Iteration:  1348charge 0 multiplicity 1
 C         0.078375        -0.418158        -0.305189
 C         1.603098        -0.052518        -0.106347
 C         2.163680        -0.825307         1.089842
 O         3.560345        -0.497900         1.276557
 C         4.081261         0.182394         0.120158
 C         3.926155        -0.642524        -1.115071
 C         2.603643         0.072339        -1.309401
 C         3.089428         1.224269        -0.428657
 O         1.813555         1.338062         0.227150
 H         0.024643        -1.555930        -0.650891
 H        -0.583810        -0.270513         0.571395
 H        -0.268214         0.228258        -1.129639
 H         1.810519        -0.703516         2.176780
 H         2.217566        -1.914127         0.871617
 H         5.099766         0.591753         0.277047
 H         4.627102        -0.390137        -1.931743
 H         3.987965        -1.759409        -1.010928
 H         2.016285         0.372402        -2.264049
 H         3.500204         2.159743        -0.639667
