19
Iteration:   230charge 0 multiplicity 1
 C         0.041717        -0.433489        -0.407176
 C         1.506324        -0.089675        -0.104190
 C         2.207508        -1.101999         0.881100
 O         3.642811        -0.805995         1.051767
 C         4.178817         0.231810         0.151127
 C         3.942511        -0.285600        -1.318209
 C         2.643056         0.474737        -1.276223
 C         3.022454         1.281962        -0.098565
 O         1.741411         1.187024         0.588368
 H        -0.506786        -0.041681         0.422236
 H        -0.450364        -0.010895        -1.368497
 H         0.040846        -1.537675        -0.511967
 H         1.819336        -1.225091         1.826198
 H         2.221230        -2.052868         0.401787
 H         5.152606         0.511773         0.550267
 H         4.481273         0.203563        -2.168419
 H         3.896954        -1.350686        -1.389771
 H         2.169276         0.900479        -2.086952
 H         3.482539         2.247658        -0.170749
