19
Iteration:  1465
 C         0.002296        -0.363826        -0.210968
 C         1.619997        -0.042450        -0.117950
 C         2.160286        -0.891513         1.077151
 O         3.585579        -0.505341         1.256835
 C         4.118894         0.196401         0.166125
 C         4.004501        -0.639863        -1.053430
 C         2.614154        -0.030275        -1.288868
 C         3.020786         1.212641        -0.534315
 O         1.778842         1.409762         0.168097
 H        -0.091098        -0.488971        -1.336597
 H        -0.247123        -1.246218         0.321136
 H        -0.448842         0.554394         0.190879
 H         1.448800        -0.717610         1.946407
 H         2.076996        -1.967952         0.772464
 H         5.068214         0.564929         0.613707
 H         4.735558        -0.250169        -1.801486
 H         4.213223        -1.671410        -0.981415
 H         2.191904         0.011783        -2.373223
 H         3.691176         2.133983        -0.932685
