19
Iteration:  3330charge 0 multiplicity 1
 C         0.085931        -0.431869        -0.114910
 C         1.596383        -0.091804        -0.118350
 C         2.111347        -0.698599         1.138981
 O         3.468947        -0.214477         1.350055
 C         4.111665         0.129184         0.093104
 C         3.955382        -0.859698        -1.057920
 C         2.611358        -0.095836        -1.362056
 C         3.099681         1.168493        -0.598797
 O         1.891064         1.410653         0.094217
 H        -0.216005        -0.769857        -1.136583
 H        -0.108197        -1.106859         0.705096
 H        -0.486793         0.517339         0.077348
 H         1.549540        -0.308552         2.006762
 H         2.151971        -1.822511         1.131442
 H         5.174181         0.158293         0.441624
 H         4.501911        -0.686045        -2.024751
 H         4.156599        -1.983022        -0.999786
 H         2.129484         0.072820        -2.314144
 H         3.488698         2.047981        -1.087363
