19
Iteration:  3159charge 0 multiplicity 1
 C         0.101518        -0.260016        -0.322618
 C         1.615830        -0.131158        -0.077111
 C         2.190845        -0.769767         1.127280
 O         3.516769        -0.261478         1.295083
 C         4.059351         0.210542         0.091822
 C         3.931762        -0.775046        -1.115329
 C         2.558890        -0.123459        -1.264340
 C         2.997870         1.114104        -0.592200
 O         1.934840         1.299810         0.309555
 H        -0.343058        -0.014768         0.690922
 H        -0.115981         0.396160        -1.228941
 H        -0.154281        -1.276444        -0.535455
 H         1.601749        -0.580108         2.037449
 H         2.153919        -1.811851         1.060130
 H         5.059500         0.460811         0.123222
 H         4.399912        -0.425172        -2.050607
 H         4.052436        -1.869676        -0.948505
 H         2.238358        -0.005882        -2.292812
 H         3.373322         2.020272        -1.021839
