19
Iteration:   854charge 0 multiplicity 1
 C         0.152605        -0.345241        -0.275648
 C         1.595389        -0.072705        -0.107544
 C         2.191455        -0.950656         0.907515
 O         3.554163        -0.612681         1.260607
 C         4.049316         0.228756         0.221832
 C         3.984285        -0.497770        -1.158301
 C         2.582531         0.081698        -1.366385
 C         3.006984         1.270852        -0.396418
 O         1.806165         1.307031         0.359444
 H        -0.301369         0.386193        -1.032863
 H        -0.211267        -1.398749        -0.506537
 H        -0.325538        -0.200019         0.770031
 H         1.715968        -1.050870         1.940048
 H         2.297554        -1.889780         0.454081
 H         5.085053         0.589102         0.369492
 H         4.649962        -0.274505        -1.989309
 H         4.024476        -1.630655        -1.141626
 H         2.093796         0.251097        -2.338334
 H         3.417146         2.212607        -0.668540
