19
Iteration:  3264charge 0 multiplicity 1
 C         0.125683        -0.286526        -0.388288
 C         1.564598        -0.055488        -0.067294
 C         2.258588        -0.810108         1.197220
 O         3.572529        -0.206928         1.390905
 C         4.140772         0.217275         0.051153
 C         3.784912        -0.875666        -1.052716
 C         2.511521        -0.117344        -1.265099
 C         3.044260         1.150359        -0.614743
 O         1.892317         1.313996         0.227553
 H        -0.106509        -1.360465        -0.406817
 H        -0.497499         0.103654         0.370845
 H        -0.162442         0.103560        -1.390516
 H         1.723518        -0.522622         2.087737
 H         2.313159        -1.841422         0.842916
 H         5.205951         0.562208         0.105019
 H         4.454281        -0.675045        -1.867370
 H         4.028695        -1.949704        -0.868613
 H         2.146260        -0.187551        -2.271223
 H         3.257012         2.078441        -1.139470
