19
Iteration:  4824
 C         0.044023        -0.251717        -0.093972
 C         1.555163         0.004855        -0.120549
 C         2.103859         0.090216         1.333159
 O         3.594558         0.453590         1.439949
 C         4.145115         0.167301         0.127372
 C         3.876046        -1.349319        -0.247283
 C         2.608621        -0.883292        -1.080626
 C         3.132629         0.709324        -1.143725
 O         1.872092         1.241876        -0.734107
 H        -0.305240         0.198618        -1.025491
 H        -0.273819        -1.337238        -0.080856
 H        -0.473526         0.441003         0.636598
 H         1.631922         0.868495         2.035648
 H         1.973966        -0.927403         1.841237
 H         5.115968         0.665480         0.114858
 H         4.662166        -1.734838        -0.886346
 H         3.786301        -2.111523         0.447923
 H         2.214347        -1.345168        -1.977186
 H         3.583158         1.013709        -2.050584
