19
Iteration:   168charge 0 multiplicity 1
 C         0.049528        -0.278843        -0.321275
 C         1.534287        -0.155159        -0.099699
 C         2.354514        -1.226387         0.692428
 O         3.523095        -0.617744         1.154528
 C         4.085785         0.228866         0.123486
 C         4.008128        -0.342828        -1.270095
 C         2.544428         0.395449        -1.310944
 C         2.942250         1.289799        -0.183822
 O         1.863836         1.142767         0.681572
 H        -0.639088        -0.498216         0.519647
 H        -0.270609         0.518422        -0.841585
 H        -0.067511        -1.258521        -1.008475
 H         1.640561        -1.599737         1.544931
 H         2.545155        -2.038172        -0.094626
 H         5.095050         0.636386         0.478850
 H         4.687893         0.075774        -1.981048
 H         4.183648        -1.468402        -1.370819
 H         1.989993         0.683315        -2.323354
 H         3.378475         2.296263        -0.173173
