19
Iteration:  2968
 C         0.097770        -0.399969        -0.196790
 C         1.573131         0.000339        -0.052931
 C         2.134096        -0.754947         1.164731
 O         3.613320        -0.553247         1.299040
 C         4.119508         0.164498         0.171187
 C         4.003397        -0.725352        -1.171589
 C         2.573374         0.045168        -1.315023
 C         3.100930         1.233407        -0.569484
 O         1.769408         1.369587         0.118123
 H        -0.369156         0.325666        -0.821811
 H        -0.044883        -1.374510        -0.719538
 H        -0.454926        -0.395003         0.769407
 H         1.571239        -0.557093         2.088686
 H         1.959919        -1.819797         0.929290
 H         5.077838         0.569173         0.630362
 H         4.567419        -0.297658        -1.999305
 H         3.896402        -1.809920        -0.984592
 H         2.085786        -0.011073        -2.276231
 H         3.328195         2.236999        -0.982678
