19
Iteration:  1215charge 0 multiplicity 1
 C         0.084765        -0.491750        -0.275162
 C         1.527299        -0.015081        -0.167078
 C         2.199946        -0.862167         1.007204
 O         3.586825        -0.632493         1.207898
 C         4.124239         0.179668         0.169044
 C         3.907762        -0.548630        -1.198898
 C         2.635828         0.131413        -1.291896
 C         3.062972         1.206016        -0.358459
 O         1.782661         1.406706         0.328080
 H        -0.563138         0.224813         0.320563
 H        -0.122874        -0.476227        -1.271897
 H         0.014957        -1.492626         0.190603
 H         1.719396        -0.579056         1.974968
 H         1.972346        -1.941238         0.914617
 H         5.095085         0.585025         0.410817
 H         4.608137        -0.113701        -1.945994
 H         4.110982        -1.563774        -1.022040
 H         2.189406         0.364161        -2.367616
 H         3.511495         2.095232        -0.724473
