19
Iteration:   739charge 0 multiplicity 1
 C         0.067417        -0.341305        -0.322658
 C         1.574807        -0.131294        -0.129727
 C         2.241498        -1.017721         0.905663
 O         3.550209        -0.531968         1.295467
 C         4.093318         0.200513         0.193244
 C         3.983193        -0.520616        -1.170115
 C         2.523541         0.174629        -1.317625
 C         3.072246         1.296513        -0.386497
 O         1.846423         1.249505         0.395131
 H        -0.147606        -0.876450        -1.307628
 H        -0.444142        -1.040900         0.520755
 H        -0.370407         0.657042        -0.290088
 H         1.668288        -0.968286         1.775378
 H         2.191772        -2.037948         0.500269
 H         5.073970         0.397654         0.577387
 H         4.538282        -0.031394        -2.107282
 H         4.016294        -1.591015        -1.439045
 H         2.106523         0.404151        -2.166129
 H         3.314537         2.359564        -0.698220
