19
Iteration:   678charge 0 multiplicity 1
 C         0.095117        -0.412366        -0.412991
 C         1.568064        -0.104324        -0.073075
 C         2.194832        -0.995684         0.976821
 O         3.591344        -0.600149         1.210047
 C         4.124218         0.204112         0.145429
 C         3.913035        -0.479545        -1.224917
 C         2.530767         0.204424        -1.311932
 C         3.046072         1.297380        -0.307556
 O         1.833800         1.300553         0.446919
 H        -0.228188        -1.415289        -0.306534
 H        -0.508270         0.158000         0.208969
 H        -0.083817        -0.148188        -1.469169
 H         1.566456        -0.991905         2.029792
 H         2.286981        -2.126269         0.772454
 H         5.217953         0.352221         0.427270
 H         4.568398        -0.069289        -1.943625
 H         3.887836        -1.576702        -1.157617
 H         2.158166         0.516574        -2.448977
 H         3.629345         2.210334        -0.445606
