19
Iteration:  3935charge 0 multiplicity 1
 C         0.124947        -0.426815        -0.181552
 C         1.651217        -0.124121        -0.105447
 C         2.133293        -0.616538         1.300375
 O         3.498753         0.020065         1.393740
 C         4.120979         0.127109         0.095975
 C         3.772695        -0.931223        -0.915597
 C         2.516697        -0.163462        -1.446085
 C         3.111672         1.036407        -0.709370
 O         1.990494         1.390246        -0.031806
 H        -0.172560        -0.958523        -1.068177
 H        -0.309205        -0.988164         0.562717
 H        -0.231696         0.623136        -0.098800
 H         1.538022        -0.382976         2.211745
 H         2.229757        -1.738555         1.432286
 H         5.134999         0.317441         0.230987
 H         4.677630        -1.102811        -1.670208
 H         3.465071        -1.928618        -0.455769
 H         2.181333        -0.384061        -2.471487
 H         3.447822         1.867494        -1.260745
