19
Iteration:  2147charge 0 multiplicity 1
 C         0.183140        -0.399958        -0.302461
 C         1.582989        -0.075551        -0.131821
 C         2.284744        -0.915308         0.991526
 O         3.439797        -0.192421         1.373769
 C         4.109528         0.162406         0.134288
 C         3.817695        -0.804739        -1.054746
 C         2.522030        -0.039915        -1.321345
 C         3.098038         1.188656        -0.509424
 O         1.877823         1.429724         0.218626
 H        -0.295896        -0.062729         0.614424
 H        -0.180727         0.224910        -1.100759
 H        -0.078024        -1.496731        -0.257107
 H         1.691254        -1.049346         2.017285
 H         2.536272        -1.970205         0.680107
 H         5.069864         0.346466         0.532564
 H         4.607855        -0.698837        -1.736818
 H         3.631285        -1.857175        -0.861494
 H         2.309836        -0.036223        -2.373431
 H         3.407769         2.117636        -0.992496
