19
Iteration:   716charge 0 multiplicity 1
 C         0.140722        -0.374682        -0.246494
 C         1.566894        -0.076537        -0.063915
 C         2.183654        -1.014963         0.996377
 O         3.534212        -0.679505         1.166632
 C         4.068522         0.196718         0.170533
 C         4.039747        -0.454423        -1.165152
 C         2.626803         0.187567        -1.428938
 C         3.038647         1.240644        -0.330482
 O         1.750233         1.371441         0.350183
 H        -0.039319        -1.290262        -0.916836
 H        -0.354901        -0.648535         0.787814
 H        -0.298000         0.554095        -0.633711
 H         1.715839        -0.986315         1.957191
 H         1.966497        -1.978100         0.523012
 H         4.963625         0.625095         0.568062
 H         4.772739        -0.054077        -1.978604
 H         4.109069        -1.586805        -1.171997
 H         2.201590         0.262933        -2.346980
 H         3.392657         2.261152        -0.566348
