19
Iteration:   644charge 0 multiplicity 1
 C         0.181587        -0.364449        -0.439610
 C         1.598975        -0.128205        -0.119138
 C         2.300021        -1.076431         0.873710
 O         3.527770        -0.443505         1.284889
 C         4.117311         0.174597         0.161749
 C         3.774315        -0.538081        -1.223252
 C         2.523913         0.198561        -1.294629
 C         3.023546         1.316132        -0.336910
 O         1.863987         1.235870         0.552496
 H        -0.265952        -1.129480         0.109283
 H        -0.324333         0.618797        -0.327127
 H         0.097865        -0.477353        -1.472988
 H         1.458094        -1.209077         1.732795
 H         2.557292        -2.066489         0.335047
 H         5.209440         0.368176         0.303756
 H         4.500547        -0.361369        -1.998524
 H         3.816877        -1.600050        -1.121927
 H         1.975877         0.525136        -2.362115
 H         3.432360         2.352874        -0.371038
