19
Iteration:  2388
 C         0.021566        -0.504053        -0.289952
 C         1.616545        -0.015419        -0.156075
 C         2.274919        -0.874317         1.083400
 O         3.514403        -0.210159         1.385691
 C         4.130572         0.123456         0.143873
 C         3.797146        -0.819704        -1.061327
 C         2.579641         0.038354        -1.297597
 C         3.106465         1.186500        -0.539954
 O         1.894683         1.416904         0.198568
 H        -0.369736        -0.996998         0.668658
 H        -0.422147         0.557177        -0.429517
 H        -0.101334        -0.963153        -1.297992
 H         1.597521        -0.926723         1.938863
 H         2.430377        -1.783074         0.504393
 H         5.141938         0.329574         0.336102
 H         4.509488        -0.877320        -1.993373
 H         3.647335        -1.943842        -0.802463
 H         2.157776         0.269837        -2.242606
 H         3.506126         2.108255        -0.940467
