19
Iteration:  1287
 C         0.042386        -0.290569        -0.328080
 C         1.515339        -0.112655        -0.083015
 C         2.254412        -1.061752         0.955316
 O         3.543725        -0.394815         1.262011
 C         4.137886         0.264925         0.119256
 C         3.968104        -0.674683        -1.067317
 C         2.622871         0.018440        -1.301018
 C         3.049953         1.266467        -0.462673
 O         1.827566         1.340647         0.367356
 H        -0.391005        -0.854707         0.430889
 H        -0.439638         0.741058        -0.353720
 H        -0.130633        -0.890762        -1.227754
 H         1.690868        -1.175749         1.853060
 H         2.343006        -2.047089         0.510215
 H         5.105247         0.622908         0.511573
 H         4.478568        -0.528197        -2.006985
 H         3.852889        -1.770038        -0.939316
 H         2.114969         0.254142        -2.216280
 H         3.309226         2.282567        -0.941481
