19
Iteration:  2592charge 0 multiplicity 1
 C         0.028663        -0.285650        -0.354067
 C         1.594775        -0.118939        -0.003097
 C         2.169192        -0.823386         1.137170
 O         3.544731        -0.511344         1.260418
 C         4.229038         0.202800         0.099120
 C         3.993830        -0.652481        -1.198095
 C         2.581857        -0.054244        -1.255600
 C         3.061787         1.212073        -0.510726
 O         1.770892         1.320848         0.280828
 H        -0.064344        -0.417936        -1.424365
 H        -0.180984        -1.197555         0.198342
 H        -0.587637         0.667170        -0.008082
 H         1.575019        -0.498767         2.062665
 H         2.117579        -1.919180         1.058902
 H         5.146078         0.720766         0.579229
 H         4.490373        -0.072637        -1.988846
 H         4.166965        -1.678384        -1.201058
 H         1.974649         0.173928        -2.222064
 H         3.366877         2.186585        -1.015684
