19
Iteration:  2316charge 0 multiplicity 1
 C         0.055174        -0.293377        -0.308241
 C         1.507413        -0.153700        -0.059003
 C         2.175183        -0.714400         1.169442
 O         3.549939        -0.402960         1.301796
 C         4.080500         0.194669         0.124993
 C         4.029237        -0.742001        -1.130194
 C         2.584488        -0.126983        -1.289960
 C         3.090355         1.169658        -0.498019
 O         1.813517         1.366222         0.155897
 H        -0.260317        -0.909312         0.519586
 H        -0.346636         0.723026        -0.316896
 H        -0.133609        -0.828058        -1.169005
 H         1.631243        -0.415728         2.165111
 H         2.142488        -1.837882         0.895911
 H         5.114125         0.639231         0.437730
 H         4.684654        -0.232997        -1.887543
 H         4.401835        -1.764702        -1.054585
 H         2.243618        -0.241232        -2.371379
 H         3.397935         2.134368        -0.977475
