19
Iteration:  4270charge 0 multiplicity 1
 C         0.165135        -0.293867        -0.142172
 C         1.604557        -0.090401        -0.093321
 C         2.179326        -0.369824         1.253342
 O         3.465748         0.169249         1.441415
 C         4.060395         0.171694         0.142173
 C         3.901274        -1.104544        -0.730023
 C         2.531649        -0.502744        -1.280407
 C         3.105718         0.891265        -0.888587
 O         1.922739         1.358136        -0.262133
 H        -0.197435         0.585949         0.279718
 H        -0.269466        -0.475128        -1.088116
 H        -0.098613        -1.117330         0.512026
 H         1.441749         0.056038         1.999610
 H         2.164966        -1.504551         1.345765
 H         5.102921         0.517444         0.066406
 H         4.670704        -1.112142        -1.542082
 H         3.821649        -2.037639        -0.062488
 H         1.898589        -0.596355        -2.197756
 H         3.636654         1.530301        -1.655000
