19
Iteration:  3727
 C         0.126290        -0.299334        -0.281251
 C         1.573625        -0.069279         0.000749
 C         2.215975        -0.719975         1.228040
 O         3.567070        -0.152163         1.359863
 C         4.083245         0.209395         0.102769
 C         3.829279        -0.937396        -0.905637
 C         2.557918        -0.270390        -1.230845
 C         3.068681         1.097649        -0.800635
 O         1.889248         1.439821         0.024316
 H        -0.363608        -1.073942         0.355687
 H        -0.395631         0.687083        -0.276125
 H        -0.000985        -0.523185        -1.386026
 H         1.678095        -0.627753         2.202532
 H         2.385921        -1.836311         1.033954
 H         5.048320         0.599375         0.161350
 H         4.485712        -0.706986        -1.680229
 H         3.905505        -1.940986        -0.482864
 H         2.170690        -0.450060        -2.251864
 H         3.289673         1.841472        -1.509348
