19
Iteration:   701
 C         0.093142        -0.392757        -0.272305
 C         1.569333        -0.022368        -0.095941
 C         2.199795        -0.931953         0.894195
 O         3.589537        -0.727328         1.146780
 C         4.089834         0.201863         0.237442
 C         4.032500        -0.515983        -1.227258
 C         2.596055         0.155609        -1.232111
 C         2.985950         1.329572        -0.361298
 O         1.772891         1.316939         0.359942
 H         0.020989        -1.418642        -0.619718
 H        -0.403980        -0.328206         0.598232
 H        -0.369450         0.206333        -1.086648
 H         1.533878        -0.751519         1.896124
 H         2.115301        -2.066323         0.745692
 H         5.097364         0.580755         0.571707
 H         4.697612        -0.009506        -1.842317
 H         4.173563        -1.611444        -1.125616
 H         2.031027         0.508979        -2.268701
 H         3.467963         2.247104        -0.615598
