19
Iteration:    36
 C         0.086559        -0.255694        -0.344254
 C         1.585001        -0.145402        -0.128923
 C         2.411782        -1.242743         0.619986
 O         3.533434        -0.603454         1.125838
 C         4.046122         0.259278         0.192083
 C         3.902522        -0.346241        -1.259118
 C         2.488067         0.356051        -1.210635
 C         2.982607         1.267503        -0.179909
 O         1.859811         1.115418         0.663048
 H        -0.392828        -0.064504         0.566605
 H        -0.172916         0.341064        -1.073584
 H        -0.252939        -1.332284        -0.709180
 H         1.909292        -1.622131         1.550585
 H         2.620502        -2.073754         0.041920
 H         5.022258         0.655947         0.511622
 H         4.482225         0.254136        -1.929183
 H         4.096705        -1.461756        -1.556417
 H         2.067492         0.818819        -2.142492
 H         3.257324         2.255072        -0.464917
