19
Iteration:  4809charge 0 multiplicity 1
 C         0.162985        -0.276485        -0.168791
 C         1.612723        -0.051082        -0.038640
 C         2.136932         0.071608         1.394804
 O         3.506151         0.451831         1.350709
 C         4.051760         0.161228         0.085789
 C         3.790558        -1.311975        -0.319587
 C         2.574000        -0.759148        -0.968190
 C         3.179757         0.647853        -1.112257
 O         1.927020         1.256566        -0.735162
 H        -0.213130        -0.417925        -1.261136
 H        -0.075026        -1.199847         0.452165
 H        -0.420416         0.517024         0.354116
 H         1.562798         0.856609         1.845212
 H         2.012506        -0.867682         1.903343
 H         5.139698         0.419229         0.148201
 H         4.528859        -1.651986        -1.092199
 H         3.770102        -2.024178         0.546496
 H         1.991553        -1.376122        -1.750189
 H         3.634248         1.334740        -1.833688
