19
Iteration:   827charge 0 multiplicity 1
 C         0.059001        -0.446291        -0.237265
 C         1.557514        -0.109871        -0.099535
 C         2.101010        -0.941569         0.999618
 O         3.501930        -0.620064         1.194137
 C         4.136500         0.134733         0.180018
 C         4.041426        -0.419067        -1.207874
 C         2.639955         0.175620        -1.324146
 C         3.063943         1.275678        -0.350475
 O         1.824153         1.350190         0.321201
 H        -0.272231        -0.232522        -1.226554
 H        -0.122036        -1.518573        -0.009972
 H        -0.577471        -0.003187         0.484690
 H         1.705230        -0.691640         1.918140
 H         2.133656        -2.081854         0.770630
 H         5.162928         0.446958         0.381549
 H         4.828333        -0.091343        -2.048782
 H         4.069387        -1.517476        -1.298417
 H         2.131624         0.409556        -2.259321
 H         3.491623         2.251200        -0.805478
