19
Iteration:   383charge 0 multiplicity 1
 C         0.177502        -0.391748        -0.452770
 C         1.651954        -0.125530        -0.071700
 C         2.313916        -1.213342         0.782032
 O         3.558158        -0.648119         1.206029
 C         4.098664         0.189392         0.050543
 C         3.776734        -0.402272        -1.246199
 C         2.523713         0.416257        -1.287082
 C         3.035971         1.455672        -0.157172
 O         1.812776         1.191269         0.620880
 H        -0.072653        -1.423263        -0.440934
 H        -0.559431         0.241476         0.113847
 H        -0.065821        -0.156525        -1.554444
 H         1.667639        -1.094971         1.636561
 H         2.358937        -2.349551         0.451889
 H         5.096611         0.342211         0.437217
 H         4.548656        -0.263140        -2.086138
 H         3.633743        -1.523448        -1.209671
 H         1.993887         0.638503        -2.133816
 H         3.486518         2.439179        -0.170203
