19
Iteration:  2818charge 0 multiplicity 1
 C         0.086092        -0.334145        -0.353027
 C         1.611434        -0.164857        -0.090920
 C         2.159975        -0.797355         1.307968
 O         3.571848        -0.459734         1.264820
 C         4.049261         0.143747         0.133826
 C         4.002456        -0.681391        -1.197551
 C         2.605340        -0.085976        -1.287848
 C         2.964582         1.246912        -0.548271
 O         1.854217         1.411255         0.239962
 H        -0.112508         0.553670        -0.939586
 H        -0.089249        -1.249399        -1.030900
 H        -0.527929        -0.418443         0.692413
 H         1.752662        -0.247751         2.184296
 H         1.944682        -1.785106         1.454714
 H         5.116339         0.535447         0.442615
 H         4.699351        -0.252432        -1.976329
 H         4.285173        -1.807953        -1.398522
 H         2.076854         0.070724        -2.218913
 H         3.251019         2.136946        -1.181469
