19
Iteration:  3301charge 0 multiplicity 1
 C         0.039016        -0.308200        -0.210145
 C         1.558952        -0.040606        -0.092438
 C         2.169163        -0.782206         1.172585
 O         3.630277        -0.370260         1.333417
 C         4.066577         0.286545         0.121322
 C         3.961489        -0.818168        -0.974806
 C         2.571352        -0.174150        -1.336319
 C         3.068986         1.129576        -0.656039
 O         1.870772         1.431237         0.072130
 H        -0.131664        -1.058381        -0.978285
 H        -0.311572        -0.703008         0.778767
 H        -0.532869         0.537451        -0.397508
 H         1.646427        -0.636565         2.127752
 H         2.068390        -1.901934         1.078894
 H         5.049212         0.548248         0.382887
 H         4.325033        -0.547408        -1.954264
 H         4.060551        -1.855764        -0.633592
 H         2.077207        -0.150444        -2.305738
 H         3.475042         1.972921        -1.210143
