19
Iteration:  2371charge 0 multiplicity 1
 C         0.156802        -0.363502        -0.325778
 C         1.572742        -0.032854         0.004695
 C         2.205965        -0.815103         1.024544
 O         3.549249        -0.320041         1.365069
 C         4.108452         0.155365         0.144531
 C         3.843712        -0.857151        -1.088368
 C         2.548517        -0.013387        -1.318257
 C         3.100483         1.216633        -0.560901
 O         1.808349         1.400713         0.182304
 H        -0.080295        -1.052976         0.467024
 H        -0.580958         0.423260        -0.319641
 H         0.199926        -0.940397        -1.223179
 H         1.783329        -0.650316         2.057174
 H         2.273705        -1.900003         0.910351
 H         5.188978         0.493992         0.397612
 H         4.646909        -0.650176        -1.743189
 H         3.823162        -1.904981        -0.876013
 H         2.098188        -0.104305        -2.360745
 H         3.444696         2.211642        -0.959625
