19
Iteration:  2617
 C         0.097484        -0.353665        -0.237703
 C         1.612134        -0.030238        -0.039850
 C         2.286569        -0.950951         0.997341
 O         3.547569        -0.478500         1.328496
 C         4.056595         0.199228         0.143447
 C         3.885191        -0.691887        -1.045557
 C         2.511535         0.027284        -1.399872
 C         3.055647         1.231002        -0.492779
 O         1.862425         1.413316         0.186407
 H        -0.074584        -0.627482        -1.335419
 H        -0.120049        -1.232637         0.458387
 H        -0.521521         0.527940        -0.029807
 H         1.653197        -0.937710         1.905337
 H         2.367434        -2.028989         0.539769
 H         4.934978         0.696758         0.421733
 H         4.738291        -0.397399        -1.737528
 H         3.847586        -1.795913        -0.866975
 H         2.001071         0.172963        -2.328922
 H         3.515111         2.185990        -0.692378
