19
Iteration:  1112
 C         0.161868        -0.428340        -0.338218
 C         1.563261        -0.033251        -0.079220
 C         2.269587        -0.931565         1.007772
 O         3.614667        -0.599578         1.246940
 C         4.109393         0.199537         0.143481
 C         3.855478        -0.567568        -1.194489
 C         2.532300         0.180484        -1.326711
 C         3.020188         1.233527        -0.381230
 O         1.771113         1.343891         0.389393
 H        -0.383781         0.488952        -0.331912
 H         0.292578        -0.780800        -1.468431
 H        -0.126968        -1.324023         0.233040
 H         1.549534        -0.613688         1.954207
 H         2.133257        -1.931445         0.666570
 H         5.181507         0.467822         0.311167
 H         4.615030        -0.480250        -1.906763
 H         3.767917        -1.594781        -1.045875
 H         2.153582         0.412579        -2.297810
 H         3.460755         2.297091        -0.591673
