19
Iteration:   860
 C         0.116065        -0.320620        -0.275299
 C         1.600746        -0.080720        -0.101925
 C         2.227679        -0.983554         0.902036
 O         3.563843        -0.554440         1.271415
 C         4.102765         0.194394         0.169174
 C         3.947445        -0.536942        -1.163538
 C         2.608333         0.110351        -1.347524
 C         2.969190         1.256791        -0.364660
 O         1.788435         1.311359         0.370304
 H        -0.223070         0.416647        -0.943113
 H        -0.121996        -1.262593        -0.801875
 H        -0.410966        -0.175124         0.629267
 H         1.715691        -1.200316         1.809871
 H         2.277540        -2.075891         0.447826
 H         5.036748         0.698131         0.466844
 H         4.825148        -0.293479        -1.915810
 H         3.946684        -1.600433        -0.955453
 H         2.013860         0.164617        -2.329551
 H         3.398835         2.226191        -0.814621
