19
Iteration:   688charge 0 multiplicity 1
 C         0.080995        -0.416509        -0.380937
 C         1.550150        -0.093967        -0.135623
 C         2.173629        -1.001538         0.973276
 O         3.603645        -0.677827         1.192662
 C         4.180482         0.211015         0.154745
 C         3.915603        -0.453631        -1.160252
 C         2.578665         0.201872        -1.284765
 C         3.089174         1.286152        -0.305082
 O         1.791919         1.337201         0.412589
 H        -0.026918        -1.459770        -0.361413
 H        -0.448580         0.052082         0.446128
 H        -0.401059         0.005660        -1.240000
 H         1.729101        -0.734435         2.012848
 H         1.982325        -2.053426         0.597213
 H         5.158862         0.563028         0.592095
 H         4.440726        -0.096895        -2.016705
 H         4.043270        -1.499046        -1.277604
 H         2.080702         0.259599        -2.370396
 H         3.254936         2.292844        -0.723459
