19
Iteration:  2845
 C         0.107143        -0.354824        -0.236918
 C         1.556206        -0.028541        -0.134468
 C         2.090032        -0.778891         1.108842
 O         3.593489        -0.488981         1.289120
 C         4.172201         0.224397         0.170044
 C         3.997508        -0.688334        -1.165150
 C         2.530819        -0.037865        -1.272232
 C         3.063044         1.157879        -0.485974
 O         1.817759         1.360070         0.187217
 H        -0.273099        -0.144075        -1.266886
 H         0.108055        -1.433467        -0.081788
 H        -0.513607        -0.038029         0.524451
 H         1.648923        -0.487453         2.086210
 H         2.029597        -1.970874         0.984391
 H         5.039104         0.739587         0.452838
 H         4.500004        -0.338564        -2.111001
 H         4.034656        -1.747562        -1.061773
 H         2.065022         0.203511        -2.286619
 H         3.542365         2.040706        -0.997908
