19
Iteration:  1301charge 0 multiplicity 1
 C         0.050643        -0.318070        -0.234993
 C         1.600211        -0.097753        -0.070057
 C         2.238990        -0.966131         0.929388
 O         3.500422        -0.472586         1.255952
 C         4.081109         0.261222         0.216486
 C         3.994369        -0.624753        -1.148348
 C         2.533083         0.062926        -1.327900
 C         3.041387         1.203075        -0.468040
 O         1.868656         1.313736         0.273601
 H        -0.508992        -1.077482         0.503742
 H        -0.447995         0.675669        -0.097673
 H        -0.239885        -0.608307        -1.337820
 H         1.635293        -0.885670         1.995100
 H         2.298305        -1.995047         0.604390
 H         5.015909         0.682687         0.560264
 H         4.855225        -0.328913        -1.782819
 H         4.212461        -1.635245        -0.909409
 H         2.217591        -0.026219        -2.274490
 H         3.540323         2.179431        -0.820137
