19
Iteration:   397charge 0 multiplicity 1
 C         0.235942        -0.386089        -0.465781
 C         1.620113        -0.087268        -0.147990
 C         2.281186        -1.111604         0.795782
 O         3.553114        -0.585264         1.190621
 C         4.112733         0.174136         0.197668
 C         3.742375        -0.463454        -1.280989
 C         2.485939         0.435917        -1.276285
 C         3.029474         1.362395        -0.191678
 O         1.860247         1.116157         0.644393
 H        -0.002927        -1.469901        -0.496027
 H        -0.277574        -0.046639         0.316737
 H         0.001090         0.198113        -1.457346
 H         1.772453        -1.402074         1.641523
 H         2.488409        -2.046774         0.181885
 H         5.219494         0.467929         0.352012
 H         4.444175        -0.206455        -2.029231
 H         3.523103        -1.581727        -1.288538
 H         1.936578         0.727870        -2.175719
 H         3.152184         2.457063        -0.285433
