19
Iteration:  3066
 C         0.095839        -0.340720        -0.198429
 C         1.533410        -0.129824        -0.106460
 C         2.161610        -0.781375         1.152928
 O         3.516630        -0.419418         1.357833
 C         4.163369         0.152631         0.149393
 C         3.985060        -0.675899        -1.220826
 C         2.585493        -0.073120        -1.341264
 C         3.086319         1.169414        -0.576745
 O         1.814226         1.381640         0.181737
 H        -0.303701         0.618212        -0.001341
 H        -0.163515        -0.635063        -1.219679
 H        -0.393818        -0.944895         0.621790
 H         1.535883        -0.406049         1.976578
 H         1.921052        -1.877084         1.180990
 H         5.139493         0.586765         0.638528
 H         4.559392        -0.244111        -2.101688
 H         4.294680        -1.753997        -1.020985
 H         2.061543         0.064310        -2.316111
 H         3.684244         2.027186        -1.023842
