19
Iteration:  2430charge 0 multiplicity 1
 C         0.193241        -0.350187        -0.327612
 C         1.524847        -0.097535         0.049737
 C         2.170522        -0.796570         1.095731
 O         3.531804        -0.399605         1.299872
 C         4.126976         0.192665         0.118817
 C         3.956304        -0.718438        -1.120698
 C         2.593996        -0.092971        -1.330796
 C         3.033668         1.194175        -0.553510
 O         1.828404         1.397972         0.223222
 H        -0.382681        -0.273012         0.611805
 H        -0.204173         0.509977        -0.864197
 H        -0.251851        -1.265501        -0.740329
 H         1.638623        -0.533669         2.001452
 H         2.007891        -1.914944         0.913205
 H         5.067626         0.574972         0.360195
 H         4.722056        -0.536930        -2.018095
 H         3.988581        -1.791475        -0.781733
 H         2.009064        -0.106084        -2.238508
 H         3.411773         2.078667        -1.118767
