19
Iteration:  1019
 C         0.091129        -0.209461        -0.441980
 C         1.516387        -0.101374        -0.034591
 C         2.415921        -1.080674         0.875847
 O         3.557315        -0.414034         1.290449
 C         4.073798         0.253438         0.092423
 C         3.879696        -0.624647        -1.144602
 C         2.523068         0.102180        -1.296607
 C         3.032352         1.314268        -0.359643
 O         1.805925         1.166607         0.497795
 H        -0.024597         0.159487        -1.543580
 H        -0.205341        -1.227858        -0.310174
 H        -0.535191         0.380624         0.283198
 H         1.899105        -1.332553         1.818957
 H         2.697667        -2.079324         0.315254
 H         5.064798         0.573871         0.324361
 H         4.563539        -0.399241        -2.088030
 H         3.959398        -1.814810        -1.142314
 H         2.003893         0.299018        -2.127963
 H         3.336317         2.240330        -0.743855
