19
Iteration:  3659charge 0 multiplicity 1
 C         0.113275        -0.391100        -0.164053
 C         1.586850        -0.113641        -0.019718
 C         2.124650        -0.599955         1.237491
 O         3.507087        -0.167648         1.388919
 C         4.132208         0.236440         0.070132
 C         3.879857        -0.922242        -0.939922
 C         2.575517        -0.215916        -1.247188
 C         3.155426         1.115273        -0.751597
 O         1.874735         1.363050        -0.098485
 H        -0.118087        -1.417124        -0.477366
 H        -0.509482         0.028396         0.698517
 H        -0.180844         0.300913        -0.942530
 H         1.599640        -0.087403         2.098959
 H         2.043631        -1.808010         1.259686
 H         5.168537         0.406495         0.409141
 H         4.453415        -0.755911        -1.885740
 H         3.794024        -1.965360        -0.726768
 H         2.161052        -0.279825        -2.260268
 H         3.630528         1.840925        -1.375965
