19
Iteration:  1360
 C         0.151896        -0.394502        -0.408984
 C         1.541647        -0.038657        -0.068502
 C         2.216217        -0.887854         1.077324
 O         3.633294        -0.442489         1.282814
 C         4.126430         0.221050         0.159377
 C         3.836559        -0.730370        -1.112609
 C         2.528608         0.072157        -1.327656
 C         3.053417         1.247520        -0.452574
 O         1.833641         1.352531         0.311284
 H         0.157165        -1.367170        -0.996044
 H        -0.425440        -0.600991         0.536211
 H        -0.394467         0.333406        -0.985134
 H         1.534631        -0.575839         1.884240
 H         2.034657        -1.984881         0.890081
 H         5.139738         0.580350         0.474749
 H         4.579151        -0.469901        -1.872548
 H         3.843542        -1.839564        -0.848223
 H         2.171024         0.044914        -2.464336
 H         3.398000         2.138483        -0.843012
