19
Iteration:  3507
 C         0.022182        -0.326425        -0.380969
 C         1.567743        -0.129839        -0.012292
 C         2.160650        -0.584104         1.298782
 O         3.577338        -0.034585         1.377309
 C         4.158665         0.172085         0.071670
 C         3.851317        -0.951951        -1.035196
 C         2.560313        -0.286940        -1.263621
 C         3.089721         1.099472        -0.741494
 O         1.936175         1.297942         0.080080
 H        -0.598935        -0.887970         0.398580
 H        -0.441686         0.755380        -0.211423
 H        -0.022256        -0.846330        -1.342069
 H         1.633845        -0.231303         2.235955
 H         2.186519        -1.709418         1.289617
 H         5.153377         0.484545         0.338088
 H         4.629833        -0.652216        -1.727870
 H         3.835715        -2.056854        -0.743153
 H         2.011119        -0.367064        -2.213109
 H         3.437615         2.084601        -0.918723
