19
Iteration:  2340
 C         0.017822        -0.311977        -0.338909
 C         1.547111        -0.156801        -0.031709
 C         2.133380        -0.754339         1.210782
 O         3.573701        -0.473061         1.288959
 C         4.153884         0.277182         0.164292
 C         3.975930        -0.722797        -1.125280
 C         2.588476        -0.059157        -1.262323
 C         3.058279         1.158757        -0.641736
 O         1.861490         1.348616         0.195080
 H        -0.308888        -0.977420         0.419005
 H        -0.458111         0.622073        -0.323982
 H        -0.052185        -0.794363        -1.325955
 H         1.666810        -0.099153         1.975197
 H         1.900683        -1.875014         1.273128
 H         5.136811         0.674923         0.561274
 H         4.782511        -0.407335        -1.950751
 H         4.201058        -1.754512        -0.929004
 H         2.130269        -0.027918        -2.292920
 H         3.303309         2.141769        -1.178770
