19
Iteration:  4205
 C         0.132525        -0.328663        -0.254745
 C         1.657483        -0.062123        -0.058000
 C         2.163190        -0.388057         1.324047
 O         3.538873         0.058161         1.480094
 C         4.071290         0.158396         0.085676
 C         3.824531        -1.094157        -0.806401
 C         2.535475        -0.431963        -1.214355
 C         3.054517         0.992866        -0.946462
 O         1.957111         1.385732        -0.215139
 H        -0.137446        -0.417826        -1.261846
 H        -0.042107        -1.317373         0.162244
 H        -0.522685         0.310100         0.350700
 H         1.572435         0.144537         2.137615
 H         2.126299        -1.424076         1.616866
 H         5.062371         0.463249         0.368310
 H         4.657762        -1.106106        -1.601332
 H         3.784863        -2.153212        -0.278080
 H         1.899971        -0.901142        -2.036385
 H         3.363259         1.849241        -1.596009
