19
Iteration:  1826
 C         0.122961        -0.386450        -0.212860
 C         1.608017        -0.055558        -0.017059
 C         2.109174        -0.764577         1.154921
 O         3.494640        -0.487095         1.260277
 C         4.048312         0.189738         0.160859
 C         4.058367        -0.709776        -1.151086
 C         2.623335         0.017211        -1.333268
 C         3.074753         1.178821        -0.512551
 O         1.816884         1.368908         0.094643
 H        -0.415105         0.066500         0.695559
 H        -0.376457        -0.089772        -1.193390
 H        -0.060968        -1.459687        -0.203198
 H         1.461742        -0.258072         2.042016
 H         2.142713        -1.838574         1.282765
 H         4.970167         0.598805         0.511933
 H         4.798382        -0.365843        -1.989479
 H         4.062356        -1.832219        -0.946747
 H         2.206807        -0.023313        -2.266921
 H         3.449483         2.146639        -1.012242
