19
Iteration:  2827
 C         0.078920        -0.389093        -0.343916
 C         1.576248        -0.078009         0.027549
 C         2.178389        -0.744136         1.230613
 O         3.549614        -0.492139         1.299170
 C         4.060880         0.135201         0.136702
 C         3.998077        -0.610672        -1.210875
 C         2.581627        -0.086958        -1.354874
 C         3.045683         1.219210        -0.519280
 O         1.858903         1.349390         0.183985
 H        -0.239387         0.412774        -1.022712
 H        -0.322092        -1.397677        -0.692909
 H        -0.548876        -0.135302         0.558864
 H         1.785849        -0.208943         2.104709
 H         2.005145        -1.803952         1.366516
 H         5.128554         0.345443         0.413640
 H         4.579173         0.097625        -1.792699
 H         4.308983        -1.679077        -1.217793
 H         2.052263        -0.089166        -2.287877
 H         3.440530         2.076998        -1.078887
