19
Iteration:  1660charge 0 multiplicity 1
 C         0.139668        -0.406293        -0.378142
 C         1.551880        -0.056619        -0.035993
 C         2.171491        -0.766461         1.146811
 O         3.549599        -0.244311         1.327232
 C         4.144607         0.187135         0.088917
 C         3.847218        -0.789235        -1.084632
 C         2.550061        -0.058653        -1.315266
 C         3.117778         1.216973        -0.531124
 O         1.875540         1.292391         0.252281
 H        -0.314157        -1.057713         0.474890
 H        -0.458691         0.437200        -0.656397
 H        -0.017115        -1.038396        -1.310777
 H         1.390694        -0.529304         1.885271
 H         2.322904        -1.883025         0.971510
 H         5.216336         0.420599         0.415326
 H         4.735357        -0.859228        -1.886497
 H         3.564360        -1.849817        -0.942305
 H         2.107713         0.152500        -2.221173
 H         3.344584         2.211210        -1.010657
