19
Iteration:  4570charge 0 multiplicity 1
 C         0.020424        -0.260468        -0.246381
 C         1.570551        -0.052798        -0.080065
 C         2.156873        -0.199885         1.404707
 O         3.574325         0.332541         1.432638
 C         4.130072         0.171087         0.075301
 C         3.903982        -1.195238        -0.494946
 C         2.571030        -0.677549        -1.021945
 C         3.109782         0.750873        -1.032276
 O         1.898464         1.351425        -0.563684
 H        -0.368174        -1.135375        -0.838813
 H        -0.303832        -0.592142         0.729870
 H        -0.336063         0.724585        -0.413416
 H         1.483383         0.519891         2.004341
 H         2.128289        -1.210164         1.631427
 H         5.184386         0.579063         0.259148
 H         4.611776        -1.715196        -1.256070
 H         3.919420        -1.998141         0.247470
 H         2.041665        -1.119394        -1.987786
 H         3.489606         1.280798        -1.883991
