19
Iteration:  2187
 C        -0.062551        -0.324350        -0.255305
 C         1.564872        -0.141651        -0.077627
 C         2.197370        -0.831070         1.154871
 O         3.526466        -0.452360         1.268848
 C         4.136000         0.258482         0.175464
 C         4.032544        -0.664020        -1.045646
 C         2.667590        -0.086207        -1.365291
 C         3.080519         1.161205        -0.560764
 O         1.834252         1.406943         0.168558
 H        -0.552849         0.438950         0.368572
 H        -0.423074        -0.133109        -1.310379
 H        -0.358923        -1.364308         0.157699
 H         1.580948        -0.578203         1.958185
 H         2.034346        -1.929874         1.075302
 H         5.139594         0.634507         0.358105
 H         4.579172        -0.491114        -2.045309
 H         4.120413        -1.713077        -0.781329
 H         2.112307         0.068732        -2.283779
 H         3.566797         2.012939        -1.132385
