19
Iteration:   486charge 0 multiplicity 1
 C         0.054280        -0.400711        -0.325102
 C         1.537740        -0.101767        -0.127918
 C         2.199638        -1.084243         0.846097
 O         3.605207        -0.668999         1.158227
 C         4.167040         0.231518         0.167298
 C         3.965266        -0.405976        -1.306037
 C         2.553808         0.329787        -1.267874
 C         3.089012         1.315752        -0.207559
 O         1.778936         1.196950         0.524311
 H        -0.103291        -0.205120        -1.439205
 H        -0.418283        -1.298437        -0.191939
 H        -0.502641         0.341247         0.268975
 H         1.676049        -1.043102         1.768846
 H         2.091649        -2.237293         0.527288
 H         5.130082         0.400760         0.709809
 H         4.492652         0.194247        -2.042497
 H         4.138510        -1.492232        -1.373899
 H         2.115732         0.601697        -2.277218
 H         3.397006         2.355088        -0.535720
