19
Iteration:  3019
 C         0.129972        -0.336607        -0.366511
 C         1.618542        -0.106995        -0.044481
 C         2.271538        -0.898239         1.023858
 O         3.525297        -0.248365         1.338769
 C         4.147608         0.256192         0.043542
 C         3.793000        -0.793910        -1.029757
 C         2.547895        -0.053082        -1.260728
 C         2.992022         1.196041        -0.529366
 O         1.952943         1.365324         0.297869
 H        -0.526788         0.587270        -0.401377
 H         0.149648        -0.752308        -1.427060
 H        -0.426589        -0.973407         0.275776
 H         1.637786        -1.002420         1.936889
 H         2.180901        -2.017109         0.620670
 H         5.152425         0.381768         0.328146
 H         4.549451        -0.988757        -1.876464
 H         3.406869        -1.752975        -0.735639
 H         1.917126         0.032624        -2.228720
 H         3.271927         2.152039        -1.036174
