19
Iteration:  4814
 C         0.125777        -0.269810        -0.161287
 C         1.603185        -0.024113        -0.056679
 C         2.115619         0.087780         1.379066
 O         3.547871         0.440263         1.376073
 C         4.062041         0.192939         0.099049
 C         3.820735        -1.366899        -0.279904
 C         2.568214        -0.800195        -1.001904
 C         3.162968         0.709424        -1.124613
 O         1.916319         1.231732        -0.745342
 H        -0.183371        -0.256980        -1.160097
 H        -0.138792        -1.224205         0.313976
 H        -0.319831         0.494512         0.497461
 H         1.446804         0.846194         1.914267
 H         2.029719        -0.924276         1.906076
 H         5.133879         0.298715         0.059177
 H         4.526108        -1.563313        -1.066408
 H         3.834472        -2.051325         0.558594
 H         2.131908        -1.358525        -1.788341
 H         3.575800         1.345295        -1.932215
