19
Iteration:  3219
 C         0.159520        -0.373659        -0.158306
 C         1.609169        -0.011483        -0.109228
 C         2.201222        -0.779642         1.059507
 O         3.550173        -0.371028         1.370304
 C         4.076348         0.124597         0.131092
 C         3.898266        -0.808220        -1.039517
 C         2.549282        -0.051098        -1.297215
 C         3.096417         1.225435        -0.573117
 O         1.824025         1.416634         0.059091
 H        -0.052957        -1.087274         0.624598
 H        -0.610771         0.325346         0.048020
 H        -0.072591        -0.917058        -1.136173
 H         1.521102        -0.401851         1.808799
 H         2.262125        -1.848008         0.827389
 H         5.169604         0.360091         0.395709
 H         4.431444        -0.753877        -1.990948
 H         3.775762        -1.875217        -0.820205
 H         1.909653         0.058858        -2.204032
 H         3.562654         2.193229        -0.912539
