19
Iteration:  3203
 C         0.097207        -0.413900        -0.155085
 C         1.549193        -0.003329        -0.049072
 C         2.229907        -0.764670         1.105343
 O         3.609209        -0.488406         1.341453
 C         4.121662         0.197676         0.191682
 C         3.859148        -0.803717        -1.056344
 C         2.582820        -0.058055        -1.386949
 C         3.078150         1.152227        -0.569891
 O         1.778675         1.516315         0.019061
 H        -0.307171        -0.903011         0.807581
 H        -0.316946         0.665340        -0.248923
 H        -0.140798        -0.875194        -1.074981
 H         1.814121        -0.768364         2.134871
 H         2.112482        -1.830556         0.816235
 H         5.006407         0.689078         0.479620
 H         4.706660        -0.395878        -1.632589
 H         3.844652        -1.865994        -0.770576
 H         2.231152        -0.074480        -2.445310
 H         3.587816         1.928900        -1.123978
