19
Iteration:  2949charge 0 multiplicity 1
 C         0.156185        -0.347277        -0.282293
 C         1.576585        -0.121027        -0.062084
 C         2.164177        -0.782082         1.091804
 O         3.626810        -0.587606         1.167576
 C         4.075746         0.227072         0.160989
 C         3.947233        -0.663897        -1.065398
 C         2.539747        -0.092627        -1.290104
 C         2.971783         1.179122        -0.488806
 O         1.820216         1.512792         0.182321
 H        -0.385024         0.100171        -1.116936
 H        -0.042213        -1.415071        -0.312923
 H        -0.403680         0.151751         0.608701
 H         1.836950        -0.371302         2.068621
 H         2.038190        -1.966741         1.345206
 H         5.109203         0.657789         0.378999
 H         4.685472        -0.349609        -1.811370
 H         4.204885        -1.718275        -0.700518
 H         2.139669        -0.072212        -2.274804
 H         3.448432         2.075097        -0.888893
