19
Iteration:  1607charge 0 multiplicity 1
 C         0.061545        -0.328014        -0.300225
 C         1.582223        -0.034716        -0.024230
 C         2.204064        -0.844891         1.065082
 O         3.550060        -0.347507         1.309524
 C         4.108612         0.206717         0.112668
 C         3.947765        -0.715820        -1.020846
 C         2.608404        -0.129426        -1.288301
 C         3.096237         1.192001        -0.538323
 O         1.811116         1.328716         0.161447
 H        -0.531002        -0.115477         0.702574
 H        -0.376951         0.320391        -1.024096
 H        -0.269772        -1.339475        -0.563774
 H         1.587200        -0.687990         1.865092
 H         2.184762        -1.962871         0.828631
 H         5.085112         0.658033         0.389906
 H         4.668630        -0.506785        -1.898629
 H         4.054180        -1.788536        -0.922908
 H         2.106863         0.003191        -2.412619
 H         3.371777         2.258562        -0.895451
