19
Iteration:  3302
 C         0.035940        -0.315788        -0.206619
 C         1.558044        -0.036966        -0.092694
 C         2.159327        -0.776157         1.167058
 O         3.630732        -0.368165         1.330497
 C         4.070390         0.279138         0.129928
 C         3.957105        -0.811804        -0.972666
 C         2.571079        -0.176506        -1.334637
 C         3.074299         1.131089        -0.661986
 O         1.871493         1.425237         0.074777
 H        -0.131249        -1.048036        -0.991550
 H        -0.288472        -0.710221         0.803486
 H        -0.562965         0.554989        -0.380749
 H         1.648698        -0.627628         2.135143
 H         2.087442        -1.898224         1.082985
 H         5.065132         0.570927         0.406298
 H         4.359066        -0.566179        -1.979532
 H         4.060726        -1.844286        -0.670735
 H         2.074623        -0.154745        -2.338956
 H         3.505520         1.987941        -1.223618
