19
Iteration:  1064
 C         0.106851        -0.441573        -0.298748
 C         1.573300        -0.021530        -0.061943
 C         2.129354        -0.918661         1.035698
 O         3.586791        -0.598524         1.176272
 C         4.104184         0.159671         0.179180
 C         3.987658        -0.493716        -1.209133
 C         2.562049         0.178486        -1.359357
 C         3.033186         1.230356        -0.365314
 O         1.829554         1.296032         0.376399
 H        -0.496190         0.390166        -0.806199
 H         0.112807        -1.418449        -0.788749
 H        -0.202281        -0.669605         0.735757
 H         1.601023        -0.677682         1.986994
 H         2.022790        -1.987966         0.628558
 H         5.018461         0.637738         0.508273
 H         4.607570         0.035151        -2.034376
 H         4.226784        -1.645486        -1.405682
 H         2.122454         0.390004        -2.246529
 H         3.329435         2.151413        -0.788033
