19
Iteration:   950charge 0 multiplicity 1
 C         0.061757        -0.471543        -0.286266
 C         1.571685         0.022318        -0.157693
 C         2.216496        -0.869355         1.022194
 O         3.656728        -0.726503         1.192676
 C         4.098096         0.139788         0.201323
 C         3.961818        -0.542369        -1.183336
 C         2.582052         0.210200        -1.293895
 C         3.044171         1.268901        -0.342573
 O         1.730338         1.396202         0.311509
 H        -0.601408         0.042455        -0.943234
 H         0.026725        -1.535189        -0.604268
 H        -0.419804        -0.512956         0.709468
 H         1.745358        -0.602730         1.898877
 H         2.002472        -2.009941         0.762436
 H         5.075543         0.514076         0.609883
 H         4.787747        -0.118584        -1.953290
 H         4.175236        -1.646327        -1.214614
 H         2.229296         0.495346        -2.354265
 H         3.315834         2.247104        -0.820488
