19
Iteration:   493charge 0 multiplicity 1
 C         0.116276        -0.389594        -0.379480
 C         1.579554        -0.126511        -0.113968
 C         2.220126        -1.079539         0.813433
 O         3.570855        -0.621723         1.194608
 C         4.181489         0.192206         0.194297
 C         3.916149        -0.425383        -1.316223
 C         2.479915         0.300104        -1.288521
 C         3.080950         1.322658        -0.183927
 O         1.790095         1.211256         0.542497
 H        -0.220841        -0.072093        -1.389398
 H        -0.198493        -1.488758        -0.326698
 H        -0.423465         0.360710         0.374473
 H         1.613159        -1.019898         1.724473
 H         2.220698        -2.105795         0.411187
 H         5.200466         0.521611         0.494323
 H         4.388155         0.118462        -2.169331
 H         4.181089        -1.566493        -1.394782
 H         2.007972         0.681581        -2.139387
 H         3.525443         2.287409        -0.401491
