19
Iteration:  3007
 C         0.169738        -0.383451        -0.336073
 C         1.571848        -0.014069        -0.043908
 C         2.222030        -0.846232         1.025329
 O         3.510189        -0.219456         1.313015
 C         4.095531         0.144626         0.129299
 C         3.809322        -0.878646        -1.067778
 C         2.523576         0.011145        -1.348296
 C         3.080218         1.247974        -0.586843
 O         1.905967         1.303307         0.351661
 H        -0.406857         0.599195        -0.395950
 H         0.041427        -0.952576        -1.282903
 H        -0.186260        -1.020808         0.451795
 H         1.709308        -0.849092         2.016608
 H         2.497123        -1.912044         0.644045
 H         5.073301         0.510334         0.254460
 H         4.589397        -0.688666        -1.838555
 H         3.875639        -1.950741        -0.817666
 H         1.955632         0.026544        -2.343683
 H         3.486915         2.216261        -0.904662
