19
Iteration:  3136
 C         0.088039        -0.308424        -0.372686
 C         1.597797        -0.059606         0.023705
 C         2.300806        -0.895174         1.166645
 O         3.555924        -0.259790         1.354025
 C         4.128237         0.200078         0.133989
 C         3.813231        -0.791414        -1.069379
 C         2.485087        -0.059462        -1.414090
 C         3.106665         1.216319        -0.586622
 O         1.866315         1.327321         0.236191
 H        -0.583693         0.408080         0.222315
 H         0.179332        -0.110023        -1.450527
 H        -0.318313        -1.293749        -0.184607
 H         1.664850        -0.952549         2.061012
 H         2.412647        -1.918833         0.936883
 H         5.186914         0.401392         0.182757
 H         4.490631        -0.709861        -1.931551
 H         3.575506        -1.901637        -0.929664
 H         2.014426        -0.157164        -2.386778
 H         3.349592         2.221912        -0.863194
