19
Iteration:  2245charge 0 multiplicity 1
 C         0.094619        -0.415001        -0.377467
 C         1.617248        -0.034550        -0.055160
 C         2.160409        -0.789269         1.157337
 O         3.527715        -0.319926         1.371535
 C         4.148120         0.163744         0.112583
 C         3.847470        -0.756176        -1.079616
 C         2.559225        -0.030106        -1.362562
 C         3.066250         1.218175        -0.554317
 O         1.897855         1.328166         0.214717
 H        -0.567511        -0.159274         0.499318
 H        -0.163894         0.143114        -1.292978
 H        -0.052800        -1.606068        -0.435995
 H         1.682721        -0.506217         2.123301
 H         2.276743        -1.913727         0.995860
 H         5.163930         0.342356         0.340648
 H         4.503808        -0.479528        -1.925132
 H         3.928617        -1.846187        -0.987561
 H         1.954448         0.137197        -2.230868
 H         3.508982         2.167616        -0.881306
