19
Iteration:   870
 C         0.074969        -0.270059        -0.347101
 C         1.566868        -0.117641        -0.067371
 C         2.313725        -1.106931         0.913988
 O         3.566612        -0.457866         1.265441
 C         4.127567         0.225135         0.134712
 C         3.933628        -0.651523        -1.137840
 C         2.572885         0.163794        -1.283974
 C         3.011840         1.273042        -0.398413
 O         1.771030         1.303219         0.390200
 H        -0.226342         0.589263        -0.892589
 H        -0.039429        -1.172655        -0.921608
 H        -0.506015        -0.355173         0.525045
 H         1.644666        -1.083807         1.791648
 H         2.403395        -2.127148         0.390754
 H         5.088847         0.552449         0.555193
 H         4.679452        -0.306849        -1.927189
 H         3.949635        -1.714490        -1.036352
 H         2.051822         0.241257        -2.396120
 H         3.296116         2.347340        -0.665580
