19
Iteration:  3596
 C         0.095611        -0.314194        -0.219075
 C         1.557356        -0.097932        -0.031708
 C         2.208782        -0.657673         1.286286
 O         3.457003         0.007360         1.393609
 C         4.129191         0.165339         0.059287
 C         3.894089        -1.007868        -0.924571
 C         2.576686        -0.270313        -1.390466
 C         3.121493         1.101504        -0.769461
 O         1.899690         1.341760         0.035852
 H         0.007234        -1.229453        -0.840511
 H        -0.492832        -0.450403         0.740804
 H        -0.297165         0.454630        -0.920621
 H         1.687551        -0.139047         2.082895
 H         2.295778        -1.715828         1.308752
 H         5.133915         0.468104         0.093477
 H         4.578959        -1.062808        -1.729358
 H         3.859118        -2.060985        -0.560447
 H         2.035155        -0.220424        -2.342858
 H         3.449778         2.043290        -1.157709
