19
Iteration:  1969charge 0 multiplicity 1
 C         0.078984        -0.354498        -0.310549
 C         1.551209        -0.116553        -0.052572
 C         2.131216        -0.783651         1.158670
 O         3.573786        -0.544029         1.284793
 C         4.092205         0.262700         0.201824
 C         3.981408        -0.666455        -1.115991
 C         2.622715        -0.079513        -1.336913
 C         3.045288         1.183350        -0.599721
 O         1.858846         1.414345         0.176598
 H        -0.349119         0.375501         0.380547
 H        -0.196637        -0.191067        -1.389915
 H        -0.043202        -1.398751        -0.052220
 H         1.707568        -0.240519         2.188357
 H         1.993440        -1.820859         1.229349
 H         4.995747         0.647727         0.534640
 H         4.724109        -0.312119        -1.853771
 H         4.019614        -1.711837        -0.910562
 H         1.956268        -0.106876        -2.124016
 H         3.199747         2.172075        -1.053824
