19
Iteration:  1401charge 0 multiplicity 1
 C         0.114619        -0.328664        -0.370505
 C         1.582594        -0.067685        -0.073523
 C         2.275074        -0.926547         1.040863
 O         3.504053        -0.279659         1.353726
 C         4.102900         0.170465         0.157624
 C         3.853610        -0.724402        -1.144923
 C         2.546011         0.016971        -1.320489
 C         3.101581         1.203886        -0.500853
 O         1.852038         1.291958         0.327050
 H         0.099797        -0.688498        -1.542469
 H        -0.351154        -1.134237         0.210277
 H        -0.612022         0.482551        -0.633491
 H         1.802918        -0.867180         2.171430
 H         2.500762        -1.968116         0.927105
 H         5.135366         0.527810         0.185112
 H         4.500962        -0.583414        -2.041249
 H         3.723499        -1.806093        -1.051086
 H         2.052021         0.149953        -2.164883
 H         3.496142         2.254509        -0.728984
