19
Iteration:  3183charge 0 multiplicity 1
 C        -0.013270        -0.277730        -0.193704
 C         1.572147        -0.046831        -0.055214
 C         2.183225        -0.832075         1.143467
 O         3.594833        -0.447508         1.308558
 C         4.122074         0.211333         0.154568
 C         4.015218        -0.761943        -1.099451
 C         2.550040        -0.072102        -1.261232
 C         3.042576         1.211378        -0.636561
 O         1.845203         1.390187         0.084495
 H        -0.390309        -0.683263         0.758976
 H        -0.526806         0.578978        -0.739533
 H        -0.048221        -1.157730        -0.857734
 H         1.745075        -0.584671         2.128247
 H         1.979943        -1.869236         1.080506
 H         5.128004         0.557972         0.332711
 H         4.725352        -0.571701        -1.962773
 H         4.118895        -1.741302        -0.691818
 H         2.010579        -0.241116        -2.249658
 H         3.517084         2.135781        -1.042087
