19
Iteration:  4638charge 0 multiplicity 1
 C         0.075224        -0.389995        -0.168046
 C         1.515327         0.029162        -0.079950
 C         2.194752        -0.082663         1.388699
 O         3.513240         0.424156         1.316499
 C         4.059184         0.063265         0.113363
 C         3.813751        -1.244401        -0.364131
 C         2.580846        -0.666208        -1.099625
 C         3.178030         0.759639        -1.056176
 O         1.950725         1.339009        -0.568003
 H        -0.543779         0.383648        -0.475793
 H        -0.018921        -1.113928        -0.980985
 H        -0.238710        -0.780927         0.747295
 H         1.694533         0.581459         2.156091
 H         2.214332        -1.058606         1.754354
 H         5.127627         0.300815         0.023255
 H         4.729827        -1.565478        -0.946798
 H         3.748865        -2.068152         0.387411
 H         2.047038        -1.003443        -1.948102
 H         3.773099         1.202397        -1.858463
