19
Iteration:  4559
 C         0.041034        -0.291724        -0.191474
 C         1.535198        -0.060252        -0.051595
 C         2.142220        -0.235221         1.444277
 O         3.504700         0.329382         1.383475
 C         4.155034         0.170733         0.091171
 C         3.897910        -1.238241        -0.439730
 C         2.587234        -0.660060        -1.126194
 C         3.170789         0.781648        -1.146986
 O         1.908553         1.390368        -0.498046
 H        -0.262052        -1.204808        -0.762165
 H        -0.469541        -0.103930         0.717252
 H        -0.320790         0.456666        -0.871916
 H         1.524068         0.338214         2.250234
 H         2.208369        -1.182400         1.893562
 H         5.240795         0.527698         0.149788
 H         4.673899        -1.421367        -1.300583
 H         3.901421        -1.954490         0.384131
 H         1.903596        -1.146204        -1.929605
 H         3.600886         1.280377        -2.003016
