19
Iteration:    71
 C         0.081462        -0.405481        -0.321898
 C         1.526706        -0.100172        -0.110259
 C         2.269433        -1.136070         0.837809
 O         3.654070        -0.851511         1.043485
 C         4.115845         0.173215         0.149988
 C         3.999680        -0.275405        -1.313933
 C         2.602298         0.430542        -1.268703
 C         2.961571         1.392267        -0.178511
 O         1.726956         1.204586         0.600734
 H        -0.493771        -0.355167         0.617139
 H        -0.412210         0.314914        -0.877289
 H         0.072394        -1.460210        -0.767213
 H         1.782485        -1.034876         1.845930
 H         2.154016        -2.082764         0.421020
 H         5.020019         0.539550         0.688804
 H         4.659389         0.366870        -1.943506
 H         4.037933        -1.416109        -1.589836
 H         2.048442         0.775135        -2.207537
 H         3.314902         2.427268        -0.350552
