19
Iteration:  2218
 C         0.158701        -0.333937        -0.361882
 C         1.625063        -0.096562        -0.025615
 C         2.154503        -0.739468         1.217215
 O         3.562074        -0.533927         1.297100
 C         4.127264         0.231732         0.132215
 C         3.978844        -0.664629        -1.117797
 C         2.565700        -0.132019        -1.320772
 C         2.977369         1.144330        -0.553506
 O         1.776154         1.435676         0.189664
 H        -0.428630         0.342926         0.245053
 H         0.050156        -0.056730        -1.416615
 H        -0.178690        -1.271357        -0.043132
 H         1.650965        -0.370858         2.105473
 H         1.988515        -1.787323         1.131618
 H         5.176991         0.632545         0.452516
 H         4.617338        -0.396377        -2.089925
 H         4.181254        -1.741756        -0.816911
 H         1.924645         0.022425        -2.221634
 H         3.517565         1.969020        -1.099791
