19
Iteration:  3185
 C        -0.018911        -0.278107        -0.189923
 C         1.565435        -0.040622        -0.045688
 C         2.193188        -0.829638         1.153121
 O         3.606670        -0.462020         1.317222
 C         4.099777         0.211320         0.155254
 C         4.018430        -0.752717        -1.086598
 C         2.568149        -0.064653        -1.262088
 C         3.035129         1.204942        -0.645053
 O         1.845538         1.404981         0.068643
 H        -0.366671        -0.728601         0.710173
 H        -0.532445         0.553426        -0.687502
 H        -0.089251        -1.195030        -0.870639
 H         1.686461        -0.608500         2.114352
 H         1.978137        -1.920834         1.038222
 H         5.165513         0.549849         0.298870
 H         4.683717        -0.647710        -1.989679
 H         4.119450        -1.783623        -0.744331
 H         2.039812        -0.171346        -2.270759
 H         3.510494         2.151212        -1.051293
