19
Iteration:  2669charge 0 multiplicity 1
 C         0.097785        -0.370029        -0.338106
 C         1.590653        -0.046383        -0.046488
 C         2.167249        -0.891817         1.142614
 O         3.575353        -0.396669         1.362881
 C         4.067033         0.179739         0.120245
 C         3.905791        -0.666440        -1.203653
 C         2.547179        -0.002337        -1.348176
 C         3.097080         1.213783        -0.537350
 O         1.869001         1.293153         0.303286
 H        -0.064756        -0.557272        -1.397072
 H        -0.226941        -1.224600         0.236124
 H        -0.453841         0.564048        -0.115332
 H         1.580832        -0.583219         2.015936
 H         2.262876        -1.925084         0.971482
 H         5.003415         0.688853         0.388752
 H         4.628578        -0.338473        -1.945291
 H         3.866065        -1.707530        -1.235608
 H         2.162867         0.255273        -2.371368
 H         3.422902         2.169854        -0.994622
