19
Iteration:  2449
 C         0.019838        -0.248724        -0.390773
 C         1.578561        -0.047824        -0.028701
 C         2.233358        -0.851868         1.191252
 O         3.665401        -0.484176         1.278787
 C         4.067203         0.214269         0.163096
 C         3.946871        -0.715804        -1.110013
 C         2.541962        -0.102031        -1.227389
 C         3.024980         1.188995        -0.561811
 O         1.826229         1.369353         0.146353
 H        -0.725108         0.061185         0.293274
 H        -0.302426         0.130276        -1.342386
 H        -0.194497        -1.415054        -0.321618
 H         1.865635        -0.606881         2.211367
 H         2.164498        -1.961171         1.224569
 H         5.078035         0.681834         0.463655
 H         4.438896        -0.126130        -1.900413
 H         4.248602        -1.681717        -0.863366
 H         2.174892         0.012066        -2.317727
 H         3.397970         2.182692        -1.006644
