19
Iteration:  2175
 C         0.068624        -0.353209        -0.206834
 C         1.533583        -0.099053        -0.117968
 C         2.136307        -0.875720         1.076642
 O         3.527031        -0.357814         1.374151
 C         4.091742         0.218525         0.148466
 C         4.020437        -0.730032        -1.098273
 C         2.551642        -0.022774        -1.351850
 C         3.062978         1.176992        -0.573043
 O         1.903991         1.362839         0.153779
 H        -0.352069         0.396388         0.494820
 H        -0.304532        -0.112917        -1.240733
 H        -0.351363        -1.332901         0.059936
 H         1.688776        -0.668330         1.961954
 H         2.225526        -1.932225         0.881431
 H         5.006921         0.639464         0.639817
 H         4.943232        -0.494771        -1.774375
 H         3.963615        -1.820076        -0.901492
 H         2.284285        -0.005077        -2.413348
 H         3.378085         2.162296        -1.009976
