19
Iteration:  1218charge 0 multiplicity 1
 C         0.092246        -0.489022        -0.280818
 C         1.528719        -0.020981        -0.135775
 C         2.192849        -0.853418         1.011908
 O         3.578593        -0.613649         1.206820
 C         4.136336         0.167264         0.175826
 C         3.908260        -0.545078        -1.213636
 C         2.607728         0.136201        -1.276891
 C         3.058568         1.225783        -0.367773
 O         1.786899         1.390105         0.328726
 H        -0.511038         0.134819         0.306331
 H        -0.061980        -0.455055        -1.365060
 H         0.038524        -1.463498         0.125316
 H         1.730309        -0.584561         1.875739
 H         1.984088        -1.960816         0.966565
 H         5.198607         0.468734         0.410055
 H         4.633448        -0.095289        -1.928243
 H         4.068751        -1.694794        -1.058533
 H         2.223188         0.325412        -2.490800
 H         3.511017         2.138495        -0.689638
