19
Iteration:   814
 C         0.060679        -0.470685        -0.313510
 C         1.524996        -0.047702        -0.068855
 C         2.192659        -0.892059         1.020262
 O         3.560552        -0.606146         1.221640
 C         4.139719         0.183515         0.162038
 C         4.004982        -0.550732        -1.284216
 C         2.627995         0.193872        -1.320464
 C         3.062584         1.261628        -0.348029
 O         1.782987         1.321697         0.373264
 H        -0.274701        -0.376772        -1.372442
 H        -0.154026        -1.420257        -0.056245
 H        -0.439798         0.263431         0.237070
 H         1.547594        -0.873805         1.953570
 H         1.974933        -1.980783         0.681706
 H         5.046772         0.405974         0.698407
 H         4.692194        -0.025495        -1.963665
 H         4.153827        -1.647054        -1.324245
 H         2.098507         0.465341        -2.412066
 H         3.458653         2.289364        -0.450710
