19
Iteration:  1701
 C         0.149071        -0.394251        -0.200365
 C         1.628255         0.012207        -0.077380
 C         2.080380        -0.779687         1.101864
 O         3.574301        -0.540887         1.337682
 C         4.082529         0.200913         0.192956
 C         3.938857        -0.648090        -1.073201
 C         2.620591        -0.048102        -1.306268
 C         3.047035         1.175708        -0.587635
 O         1.793200         1.414098         0.059547
 H        -0.247397        -0.665803         0.741791
 H        -0.466636         0.394323        -0.681729
 H         0.006778        -1.345262        -0.823039
 H         1.868438        -0.515129         2.219059
 H         1.842200        -1.783967         0.859898
 H         5.134948         0.616783         0.405502
 H         4.649237        -0.399971        -1.831105
 H         4.127451        -1.701089        -0.861404
 H         2.074754        -0.081535        -2.227765
 H         3.530955         1.975330        -1.087971
