19
Iteration:  1463
 C         0.027894        -0.370846        -0.206018
 C         1.601398        -0.033669        -0.130378
 C         2.144736        -0.890766         1.087303
 O         3.575203        -0.521852         1.253586
 C         4.124627         0.212449         0.182777
 C         4.021858        -0.645531        -1.059749
 C         2.622944        -0.032604        -1.275926
 C         3.015143         1.220420        -0.546139
 O         1.781752         1.413246         0.164184
 H        -0.120526        -0.507300        -1.238230
 H        -0.323748        -1.232269         0.358836
 H        -0.410794         0.563953         0.202510
 H         1.525141        -0.762615         1.900792
 H         2.035355        -1.969768         0.726693
 H         5.116517         0.622316         0.541221
 H         4.735206        -0.259774        -1.836439
 H         4.196927        -1.705634        -0.958174
 H         2.156186         0.048868        -2.424831
 H         3.636295         2.113235        -0.907845
