19
Iteration:  3977charge 0 multiplicity 1
 C         0.070451        -0.298641        -0.231852
 C         1.516730        -0.023040         0.021603
 C         2.162740        -0.662291         1.245444
 O         3.619290        -0.154425         1.353981
 C         4.130836         0.193258         0.078824
 C         3.902179        -0.928743        -0.850745
 C         2.549061        -0.329736        -1.180132
 C         3.052503         1.063460        -0.811542
 O         1.877323         1.462508        -0.114536
 H        -0.020419        -0.043320        -1.275626
 H        -0.120285        -1.398450        -0.424760
 H        -0.727521         0.220828         0.401032
 H         1.699281        -0.224406         2.167610
 H         2.120600        -1.722952         1.358349
 H         5.093518         0.556973         0.201535
 H         4.572724        -1.178470        -1.721222
 H         4.135717        -1.873577        -0.415881
 H         2.149489        -0.462609        -2.217771
 H         3.501193         1.727612        -1.496413
