19
Iteration:  3576
 C         0.069648        -0.397451        -0.133630
 C         1.556526        -0.051612        -0.150605
 C         2.201378        -0.591032         1.133038
 O         3.524430        -0.078495         1.419907
 C         4.062312         0.171503         0.216898
 C         3.894053        -0.945359        -0.945468
 C         2.575805        -0.272542        -1.290564
 C         3.112584         1.060371        -0.717645
 O         1.916411         1.415477        -0.072135
 H        -0.260365        -1.434602        -0.211801
 H        -0.102101        -0.083314         0.878487
 H        -0.435518         0.245335        -0.912649
 H         1.572097        -0.376289         2.030924
 H         2.291628        -1.685231         0.994791
 H         5.109488         0.463261         0.319145
 H         4.590060        -0.820467        -1.838287
 H         3.773454        -2.099210        -0.778473
 H         2.094651        -0.342891        -2.292098
 H         3.609905         1.757595        -1.431197
