19
Iteration:   142charge 0 multiplicity 1
 C         0.131735        -0.340510        -0.481119
 C         1.606560        -0.114545        -0.130961
 C         2.335475        -1.168856         0.729494
 O         3.658635        -0.633047         1.170385
 C         4.125830         0.241934         0.182586
 C         3.769492        -0.420083        -1.332537
 C         2.507072         0.386974        -1.183661
 C         3.027384         1.355965        -0.128748
 O         1.793959         1.110048         0.653186
 H        -0.537140        -0.675480         0.285299
 H        -0.487644         0.631750        -0.750659
 H         0.084497        -1.052685        -1.245522
 H         1.723789        -1.216444         1.561758
 H         2.488299        -2.105210         0.165692
 H         5.112962         0.609711         0.372877
 H         4.317380         0.074412        -2.136391
 H         3.649483        -1.450529        -1.437909
 H         1.936944         0.555516        -2.049050
 H         3.395885         2.381040        -0.114483
