19
Iteration:  1344charge 0 multiplicity 1
 C         0.071024        -0.427839        -0.285662
 C         1.572076        -0.093032        -0.094990
 C         2.176697        -0.816872         1.072761
 O         3.540430        -0.509104         1.287550
 C         4.066304         0.159814         0.123867
 C         3.979178        -0.626031        -1.136577
 C         2.616071         0.078131        -1.317619
 C         3.098264         1.231493        -0.432350
 O         1.807243         1.353776         0.213815
 H         0.012310        -1.547161        -0.462765
 H        -0.527966        -0.144298         0.581920
 H        -0.240790         0.248026        -1.148232
 H         1.802728        -0.673506         2.137976
 H         2.213998        -1.871844         0.881453
 H         5.064306         0.498271         0.368805
 H         4.617254        -0.343425        -1.997323
 H         3.929940        -1.687220        -1.067058
 H         2.037383         0.334798        -2.096959
 H         3.534320         2.288358        -0.701207
