19
Iteration:  2885charge 0 multiplicity 1
 C         0.136954        -0.343151        -0.265610
 C         1.571708        -0.025628        -0.116493
 C         2.284667        -1.008764         0.967025
 O         3.534992        -0.259990         1.420163
 C         4.084057         0.235459         0.175852
 C         3.777551        -0.781176        -1.123219
 C         2.543881         0.050563        -1.362523
 C         3.087442         1.212993        -0.519466
 O         1.904531         1.295022         0.247166
 H        -0.224528        -0.482898        -1.303413
 H        -0.012949        -1.260756         0.308302
 H        -0.471690         0.527577         0.195344
 H         1.576930        -1.040510         1.800476
 H         2.456755        -1.949018         0.589409
 H         5.144359         0.486009         0.415963
 H         4.532573        -0.819091        -1.912812
 H         3.789150        -1.870895        -0.867043
 H         2.094367         0.252348        -2.338853
 H         3.212979         2.208098        -0.953383
