19
Iteration:  2892charge 0 multiplicity 1
 C         0.120667        -0.345120        -0.300739
 C         1.607959        -0.104851        -0.113424
 C         2.335449        -0.897099         0.969994
 O         3.481734        -0.261560         1.418294
 C         4.062255         0.226927         0.153714
 C         3.783982        -0.791209        -1.194021
 C         2.552725         0.032752        -1.309135
 C         3.113232         1.149215        -0.548097
 O         1.879955         1.308344         0.312970
 H        -0.137990        -0.389266        -1.331784
 H        -0.322221        -1.146982         0.361156
 H        -0.315153         0.534291         0.231142
 H         1.571243        -0.838885         1.776024
 H         2.546942        -2.067308         0.616272
 H         5.128047         0.510607         0.395677
 H         4.536886        -0.418394        -1.911844
 H         3.783904        -1.857395        -0.880182
 H         2.140764         0.200799        -2.283171
 H         3.328470         2.167194        -0.895047
