19
Iteration:  4360charge 0 multiplicity 1
 C         0.040751        -0.332431        -0.143729
 C         1.556890        -0.084264        -0.081587
 C         2.119457        -0.236336         1.357974
 O         3.553664         0.158745         1.445601
 C         4.124087         0.209098         0.156291
 C         3.894840        -1.169325        -0.754577
 C         2.583291        -0.545871        -1.197456
 C         3.153039         0.830014        -0.910353
 O         1.898349         1.390786        -0.376701
 H        -0.034535        -1.367064        -0.346322
 H        -0.477602        -0.033083         0.693851
 H        -0.395749         0.200328        -0.971838
 H         1.516882         0.531109         1.991989
 H         2.003854        -1.324825         1.549277
 H         5.095454         0.617157         0.322266
 H         4.635474        -1.140129        -1.660148
 H         3.909108        -2.201914        -0.289774
 H         2.109230        -0.821692        -2.203784
 H         3.703257         1.400915        -1.648120
