19
Iteration:  2092charge 0 multiplicity 1
 C         0.136920        -0.378148        -0.358257
 C         1.577663        -0.101272        -0.035853
 C         2.192630        -0.714494         1.280128
 O         3.562779        -0.487721         1.305268
 C         4.051876         0.223154         0.116263
 C         4.007743        -0.735256        -1.170626
 C         2.574284        -0.096334        -1.259915
 C         3.065156         1.205684        -0.547670
 O         1.793103         1.376864         0.147953
 H        -0.440752        -0.534810         0.531322
 H        -0.122788         0.613659        -0.663982
 H         0.155765        -1.105339        -1.233026
 H         1.428685        -0.116767         2.022834
 H         1.761720        -1.702197         1.355640
 H         5.001071         0.594294         0.455996
 H         4.724032        -0.361127        -1.883380
 H         4.032464        -1.850747        -1.056021
 H         2.094062         0.013493        -2.238753
 H         3.361274         2.064999        -1.157553
