19
Iteration:  4811
 C         0.151520        -0.270453        -0.169259
 C         1.610124        -0.043005        -0.044536
 C         2.129447         0.078401         1.389284
 O         3.523705         0.445812         1.359906
 C         4.052482         0.177003         0.090673
 C         3.802035        -1.340661        -0.299469
 C         2.572083        -0.771675        -0.977470
 C         3.176301         0.675725        -1.120572
 O         1.923018         1.245587        -0.741496
 H        -0.207714        -0.361016        -1.249000
 H        -0.105431        -1.235691         0.426797
 H        -0.384060         0.516461         0.436237
 H         1.495615         0.862737         1.870251
 H         2.022376        -0.899395         1.902624
 H         5.128741         0.345159         0.108649
 H         4.521684        -1.606431        -1.084921
 H         3.802867        -1.988164         0.507377
 H         2.039152        -1.384183        -1.772161
 H         3.578269         1.332094        -1.825614
