19
Iteration:   775
 C         0.156740        -0.360806        -0.489829
 C         1.606991        -0.105438        -0.029976
 C         2.304349        -1.079434         0.950106
 O         3.525698        -0.482315         1.280798
 C         4.110338         0.229495         0.139936
 C         3.837475        -0.667859        -1.168483
 C         2.526629         0.231143        -1.310809
 C         3.020210         1.363570        -0.388553
 O         1.864858         1.253570         0.487092
 H         0.091149        -0.347103        -1.568115
 H        -0.445891        -1.312006         0.064369
 H        -0.429624         0.593491        -0.209310
 H         1.817588        -1.221552         1.932972
 H         2.422838        -2.026294         0.438461
 H         5.115721         0.731216         0.332501
 H         4.496406        -0.398798        -2.092202
 H         3.683797        -1.746867        -0.969830
 H         1.950191         0.321403        -2.249472
 H         3.261784         2.422610        -0.707995
