19
Iteration:    62charge 0 multiplicity 1
 C         0.120826        -0.336532        -0.281736
 C         1.616587        -0.086561        -0.086072
 C         2.248296        -1.206719         0.790144
 O         3.644780        -0.848751         1.117449
 C         4.092831         0.234343         0.158873
 C         3.976230        -0.285807        -1.334843
 C         2.595725         0.386030        -1.326785
 C         2.872321         1.442075        -0.140742
 O         1.766946         1.179791         0.574590
 H        -0.399769        -0.343572         0.728255
 H        -0.281330         0.277198        -1.186383
 H        -0.093711        -1.278136        -0.709916
 H         1.692366        -1.305954         1.725097
 H         2.099053        -2.215213         0.358700
 H         5.142044         0.483583         0.393942
 H         4.696204         0.214805        -2.087050
 H         4.105901        -1.404393        -1.507633
 H         2.112404         0.621643        -2.311158
 H         3.030386         2.564914        -0.139427
