19
Iteration:  4427
 C         0.072027        -0.337513        -0.217473
 C         1.557959        -0.049448        -0.022926
 C         2.164370        -0.254792         1.280734
 O         3.508909         0.297686         1.387718
 C         4.129272         0.125881         0.132132
 C         3.846213        -1.151640        -0.565614
 C         2.560428        -0.621520        -1.155241
 C         3.122809         0.828360        -1.014922
 O         1.914856         1.369191        -0.355662
 H        -0.087181         0.531859        -0.849167
 H        -0.244665        -1.182173        -0.688917
 H        -0.454936        -0.218738         0.675114
 H         1.682464         0.198570         2.222507
 H         2.533248        -1.225040         1.534778
 H         5.195072         0.359416         0.188645
 H         4.742079        -1.229061        -1.335487
 H         3.863173        -2.151563        -0.083877
 H         2.018205        -1.072828        -2.048334
 H         3.496025         1.555313        -1.713692
