19
Iteration:  3583charge 0 multiplicity 1
 C         0.054408        -0.387486        -0.168422
 C         1.623888        -0.092284        -0.122608
 C         2.172214        -0.579797         1.163220
 O         3.533046        -0.014499         1.431141
 C         4.068323         0.142421         0.111803
 C         3.872162        -1.004210        -0.992822
 C         2.602766        -0.234241        -1.317990
 C         3.093788         1.060565        -0.706701
 O         1.920507         1.406248        -0.018586
 H        -0.280152        -1.428454        -0.400097
 H        -0.400949        -0.142563         0.887440
 H        -0.413925         0.388820        -0.757034
 H         1.439037        -0.549626         1.965911
 H         2.224345        -1.675968         1.191779
 H         5.026219         0.528058         0.411179
 H         4.661588        -0.772022        -1.638046
 H         3.825446        -1.988983        -0.627362
 H         2.190409        -0.573853        -2.271071
 H         3.587849         1.790580        -1.297859
