19
Iteration:  3417charge 0 multiplicity 1
 C         0.079713        -0.288059        -0.241889
 C         1.628307        -0.086539        -0.051135
 C         2.168613        -0.699452         1.205221
 O         3.497129        -0.195699         1.397200
 C         4.120624         0.169745         0.174313
 C         3.927332        -0.841518        -1.054381
 C         2.578409        -0.254333        -1.307221
 C         3.059279         1.155628        -0.748420
 O         1.897769         1.338913         0.053923
 H        -0.569998         0.649258        -0.025532
 H        -0.449222        -0.668904        -1.149744
 H        -0.256104        -1.011834         0.572860
 H         1.462800        -0.252331         1.920638
 H         2.136469        -1.743711         1.484707
 H         5.232619         0.391559         0.297622
 H         4.576872        -0.409729        -1.820827
 H         4.017096        -1.909626        -0.939700
 H         2.148504        -0.387404        -2.296026
 H         3.601423         1.878771        -1.310627
