19
Iteration:  2919charge 0 multiplicity 1
 C         0.067452        -0.287732        -0.356656
 C         1.539935        -0.050229         0.014598
 C         2.166927        -0.918247         1.169810
 O         3.571219        -0.366123         1.310238
 C         4.144254         0.184563         0.067958
 C         3.950239        -0.686740        -1.202133
 C         2.569725        -0.032943        -1.302573
 C         3.037967         1.202458        -0.551431
 O         1.878544         1.290118         0.272325
 H        -0.129572        -0.378703        -1.476113
 H        -0.188353        -1.236833         0.105187
 H        -0.632193         0.421455         0.124907
 H         1.691829        -0.646203         2.128937
 H         2.165816        -1.957736         1.063091
 H         5.168228         0.391346         0.304278
 H         4.609421        -0.143150        -1.881483
 H         4.094001        -1.706984        -0.896949
 H         2.109997        -0.016715        -2.326878
 H         3.162519         2.242882        -0.866522
