19
Iteration:  4974
 C         0.005113        -0.275670        -0.091975
 C         1.582877         0.011567        -0.098003
 C         2.115050         0.183640         1.333337
 O         3.504773         0.619768         1.314389
 C         4.076447         0.166220         0.143805
 C         3.865166        -1.390539        -0.215869
 C         2.607049        -0.906557        -0.919430
 C         3.237389         0.538635        -1.094665
 O         1.928895         1.234601        -0.849583
 H        -0.315663        -1.124803        -0.696039
 H        -0.410022        -0.511903         0.923354
 H        -0.476349         0.590684        -0.457368
 H         1.601989         0.977522         1.891271
 H         2.192171        -0.842750         1.850172
 H         5.103749         0.456885        -0.011349
 H         4.767351        -1.634376        -0.910601
 H         3.803518        -2.060580         0.692794
 H         2.203901        -1.600892        -1.738357
 H         3.686485         0.866459        -2.032171
