19
Iteration:   471
 C        -0.005234        -0.334912        -0.331303
 C         1.558050        -0.119833        -0.066539
 C         2.226376        -1.079487         0.899374
 O         3.590735        -0.767765         1.064022
 C         4.099958         0.201134         0.192370
 C         4.048322        -0.308848        -1.219286
 C         2.639360         0.269031        -1.341013
 C         2.959639         1.329899        -0.241302
 O         1.807781         1.227150         0.500313
 H        -0.401129        -0.477172        -1.358665
 H        -0.119826        -1.365537         0.194883
 H        -0.575456         0.582970         0.161289
 H         1.697975        -1.009389         1.868779
 H         2.191047        -2.134092         0.482219
 H         5.066740         0.669176         0.410369
 H         4.816988         0.120237        -1.921680
 H         4.076252        -1.474965        -1.343903
 H         2.146709         0.594506        -2.194200
 H         3.370403         2.334102        -0.359585
