19
Iteration:  4576charge 0 multiplicity 1
 C         0.041154        -0.254428        -0.215132
 C         1.578737        -0.039848        -0.052453
 C         2.168369        -0.139559         1.336403
 O         3.565665         0.314223         1.427463
 C         4.129996         0.223674         0.099608
 C         3.899798        -1.237261        -0.500433
 C         2.552754        -0.689693        -1.039008
 C         3.091258         0.742176        -0.981562
 O         1.903061         1.307986        -0.575062
 H        -0.233732        -0.906677        -1.086540
 H        -0.310589        -0.741093         0.738355
 H        -0.520729         0.738158        -0.356843
 H         1.657820         0.471105         2.037146
 H         2.036311        -1.265803         1.622876
 H         5.113657         0.622530         0.148012
 H         4.532668        -1.504977        -1.307878
 H         3.784875        -2.033625         0.259279
 H         2.309029        -1.164975        -1.964699
 H         3.553374         1.276864        -1.847504
