19
Iteration:  4616charge 0 multiplicity 1
 C         0.106527        -0.355961        -0.100581
 C         1.530601        -0.044354        -0.112759
 C         2.090686        -0.079280         1.344793
 O         3.443884         0.398503         1.423907
 C         4.171196         0.212934         0.109171
 C         3.818459        -1.285235        -0.509408
 C         2.592067        -0.723926        -1.069113
 C         3.146607         0.728426        -1.060965
 O         2.025239         1.354364        -0.538631
 H        -0.335897         0.180748        -0.885340
 H         0.009524        -1.363317        -0.468797
 H        -0.284446        -0.123040         0.832494
 H         1.441533         0.670353         1.907933
 H         2.091560        -1.021822         1.785973
 H         5.160964         0.733573         0.174690
 H         4.422341        -1.752813        -1.369738
 H         3.858328        -2.164918         0.179264
 H         2.086326        -1.128634        -1.909718
 H         3.536717         1.204096        -1.974876
