19
Iteration:  3225charge 0 multiplicity 1
 C         0.145497        -0.421423        -0.211671
 C         1.584705        -0.014631        -0.078251
 C         2.171969        -0.763403         1.083169
 O         3.507865        -0.321635         1.377214
 C         4.127799         0.138593         0.057191
 C         3.855602        -0.855691        -1.057707
 C         2.596349        -0.047959        -1.311764
 C         3.108812         1.253501        -0.575920
 O         1.874533         1.374909         0.121972
 H         0.041705        -1.152605         0.647859
 H        -0.577245         0.442324         0.123404
 H        -0.167967        -0.775476        -1.171710
 H         1.484600        -0.574577         1.975876
 H         2.233705        -1.876822         0.992559
 H         5.072234         0.442246         0.394203
 H         4.454246        -0.561130        -1.967062
 H         3.661873        -1.899914        -0.799793
 H         2.117995         0.159510        -2.304190
 H         3.438657         2.169161        -1.069402
