19
Iteration:  3817
 C         0.088272        -0.376028        -0.189551
 C         1.576815        -0.027958        -0.064102
 C         2.247927        -0.700977         1.167147
 O         3.508597        -0.147919         1.392359
 C         4.148793         0.152848         0.114454
 C         3.824441        -0.919810        -0.908959
 C         2.542593        -0.202500        -1.283940
 C         3.145066         1.171073        -0.759458
 O         1.879384         1.395545        -0.046438
 H        -0.219011        -0.995611         0.697711
 H        -0.532544         0.513240        -0.083164
 H        -0.124143        -0.671211        -1.263166
 H         1.579968        -0.674916         2.036329
 H         2.265643        -1.749174         1.063973
 H         5.166224         0.462356         0.456795
 H         4.551402        -1.037834        -1.680945
 H         3.706334        -1.857129        -0.331300
 H         1.924649        -0.334228        -2.205820
 H         3.553159         1.924120        -1.468046
