19
Iteration:   280
 C         0.095788        -0.390080        -0.478212
 C         1.526202        -0.086207        -0.009027
 C         2.344082        -1.210095         0.696626
 O         3.557117        -0.615712         1.200610
 C         4.125493         0.186550         0.117489
 C         3.874208        -0.377345        -1.330740
 C         2.506466         0.411950        -1.236440
 C         3.060489         1.320992        -0.123287
 O         1.836509         1.178659         0.649379
 H        -0.757945        -0.392897         0.275346
 H        -0.284962         0.555118        -1.005849
 H         0.183091        -1.202568        -1.174523
 H         1.788045        -1.542020         1.688926
 H         2.617624        -2.149700         0.112079
 H         5.124485         0.388188         0.495526
 H         4.600541         0.022819        -2.093419
 H         3.760589        -1.471414        -1.382037
 H         1.813763         0.850740        -2.066235
 H         3.427526         2.343817        -0.395354
