19
Iteration:  3869charge 0 multiplicity 1
 C         0.165527        -0.263807        -0.285660
 C         1.526766        -0.058003         0.023118
 C         2.125720        -0.674112         1.315094
 O         3.593498        -0.186791         1.360156
 C         4.148568         0.229479         0.065192
 C         3.873761        -0.928777        -0.956783
 C         2.574178        -0.313871        -1.240098
 C         3.034497         1.107921        -0.771757
 O         1.893987         1.375919        -0.034160
 H        -0.144676        -1.317640        -0.017317
 H        -0.399773         0.434810         0.306368
 H        -0.127941        -0.042574        -1.366899
 H         1.529923        -0.294167         2.214962
 H         2.038560        -1.869911         1.413905
 H         5.041609         0.736457         0.257818
 H         4.523504        -0.594850        -1.896266
 H         3.921570        -2.016091        -0.631494
 H         2.031290        -0.442393        -2.197996
 H         3.366319         1.888553        -1.420426
