19
Iteration:   186
 C         0.177807        -0.316949        -0.281983
 C         1.643992        -0.098945        -0.102103
 C         2.222120        -1.254024         0.687679
 O         3.521875        -0.748953         1.108091
 C         4.065687         0.263321         0.261114
 C         3.944600        -0.226535        -1.290953
 C         2.536383         0.268265        -1.286151
 C         3.025972         1.367227        -0.229008
 O         1.805671         1.152431         0.584090
 H        -0.168540        -0.153936         0.705864
 H        -0.428679         0.548925        -0.773316
 H        -0.172335        -1.257200        -0.654660
 H         1.752665        -1.494750         1.579374
 H         2.362824        -2.124963         0.051889
 H         4.997928         0.578142         0.674850
 H         4.557125         0.467593        -1.858627
 H         4.089637        -1.251810        -1.491320
 H         2.190983         0.473430        -2.231262
 H         3.141094         2.401123        -0.499381
