19
Iteration:  4172
 C         0.034110        -0.338110        -0.222793
 C         1.550019        -0.057969        -0.100206
 C         2.258371        -0.466789         1.276582
 O         3.510201         0.146093         1.333948
 C         4.109149         0.136282         0.086906
 C         3.856989        -1.172606        -0.768476
 C         2.564990        -0.409735        -1.191221
 C         3.116303         1.047460        -0.802785
 O         1.938153         1.369439        -0.161278
 H        -0.178056        -1.044635        -0.972763
 H        -0.264166        -0.758198         0.744038
 H        -0.570052         0.527840        -0.486185
 H         1.554282        -0.037868         2.039990
 H         2.305227        -1.523395         1.316907
 H         5.136683         0.523476         0.233329
 H         4.643079        -1.096773        -1.571990
 H         3.661217        -2.101416        -0.149772
 H         2.009196        -0.716724        -2.146922
 H         3.616609         1.822073        -1.446190
