19
Iteration:  4812charge 0 multiplicity 1
 C         0.143758        -0.269339        -0.168297
 C         1.608232        -0.037383        -0.048037
 C         2.125297         0.081742         1.385810
 O         3.532073         0.443476         1.364897
 C         4.054887         0.183538         0.093430
 C         3.808404        -1.352222        -0.291292
 C         2.570475        -0.780244        -0.984729
 C         3.172849         0.688266        -1.123013
 O         1.920999         1.240563        -0.743490
 H        -0.198710        -0.329068        -1.221651
 H        -0.118173        -1.239385         0.398245
 H        -0.362665         0.511666         0.464736
 H         1.469273         0.863440         1.886293
 H         2.025689        -0.914779         1.905582
 H         5.124079         0.319587         0.090191
 H         4.518359        -1.587140        -1.077577
 H         3.815562        -1.990342         0.505894
 H         2.070536        -1.377449        -1.775745
 H         3.567029         1.334369        -1.846356
