19
Iteration:  2166
 C         0.141460        -0.315110        -0.205709
 C         1.587723        -0.064110        -0.122835
 C         2.185551        -0.852761         1.013308
 O         3.482145        -0.291910         1.385105
 C         4.072441         0.170744         0.187874
 C         3.925915        -0.792624        -1.081581
 C         2.596313        -0.018785        -1.351745
 C         3.063697         1.221161        -0.603737
 O         1.861455         1.295172         0.183823
 H        -0.438958         0.244797         0.540935
 H        -0.229467        -0.010223        -1.229924
 H         0.041959        -1.439523         0.143012
 H         1.508008        -0.852525         1.898266
 H         2.240541        -1.986604         0.728898
 H         5.046880         0.608708         0.374864
 H         4.728298        -0.389541        -1.776311
 H         4.094541        -1.826969        -0.941484
 H         2.003640        -0.043761        -2.262740
 H         3.590316         2.152882        -0.932958
