19
Iteration:    22
 C        -0.039137        -0.309066        -0.376529
 C         1.494185        -0.116775        -0.045848
 C         2.356224        -1.232543         0.630737
 O         3.552770        -0.547925         1.215601
 C         4.190577         0.229639         0.116676
 C         3.934278        -0.338585        -1.312307
 C         2.535622         0.305406        -1.313941
 C         3.011154         1.339754        -0.164820
 O         1.872092         1.096443         0.728994
 H        -0.689218        -0.215475         0.529712
 H        -0.374164         0.451497        -1.275831
 H        -0.202318        -1.301743        -0.804126
 H         1.817642        -1.836849         1.353712
 H         2.702236        -1.981218        -0.226504
 H         5.180191         0.449039         0.504947
 H         4.598550         0.183320        -2.014135
 H         4.084137        -1.353667        -1.474963
 H         2.007557         0.557280        -2.209596
 H         3.246072         2.416000        -0.209794
