19
Iteration:  3432
 C         0.092566        -0.341388        -0.117959
 C         1.557850        -0.082229        -0.107836
 C         2.133831        -0.629753         1.198821
 O         3.501293        -0.207253         1.387053
 C         4.091458         0.149738         0.131036
 C         3.974763        -0.897352        -1.032018
 C         2.598192        -0.179219        -1.346790
 C         3.134189         1.091557        -0.642339
 O         1.853146         1.371878        -0.037388
 H        -0.393958         0.539883         0.338038
 H        -0.164799        -0.277560        -1.250167
 H        -0.129971        -1.253129         0.409967
 H         1.711119        -0.251462         2.155267
 H         2.144761        -1.724004         1.011361
 H         5.009149         0.570778         0.445310
 H         4.655353        -0.634748        -1.894349
 H         4.005343        -2.063883        -0.758965
 H         2.035321        -0.243012        -2.294404
 H         3.425233         2.059024        -1.086385
