19
Iteration:  2931charge 0 multiplicity 1
 C         0.049745        -0.334799        -0.326210
 C         1.568825        -0.092913        -0.016043
 C         2.205335        -0.807554         1.163175
 O         3.573661        -0.551307         1.287061
 C         4.128824         0.303811         0.096428
 C         3.958956        -0.660546        -1.135339
 C         2.552116        -0.057572        -1.255764
 C         3.058776         1.227379        -0.596374
 O         1.848598         1.338336         0.273001
 H        -0.080709        -0.155331        -1.447530
 H        -0.297571        -1.349609        -0.116760
 H        -0.566189         0.401511         0.151747
 H         1.691745        -0.473938         2.085088
 H         2.050945        -1.818681         1.023185
 H         5.016937         0.755871         0.446215
 H         4.501336        -0.517672        -2.088166
 H         4.112248        -1.715539        -1.063700
 H         1.977519         0.010787        -2.231220
 H         3.532964         2.019927        -1.199268
