19
Iteration:  3440
 C         0.119712        -0.377556        -0.138562
 C         1.562883        -0.062075        -0.059332
 C         2.107930        -0.658449         1.160590
 O         3.539004        -0.216408         1.368297
 C         4.134712         0.178437         0.112112
 C         3.971768        -0.924944        -0.947870
 C         2.596716        -0.127348        -1.374337
 C         3.099180         1.073162        -0.623026
 O         1.836805         1.427371        -0.055497
 H        -0.435371         0.400906         0.539718
 H        -0.508207        -0.146772        -1.084740
 H        -0.235730        -1.360759         0.200687
 H         1.529674        -0.471035         2.088354
 H         2.054910        -1.755733         1.156747
 H         5.162658         0.611477         0.153779
 H         4.679653        -0.749009        -1.758920
 H         3.897569        -2.013084        -0.655666
 H         2.066757        -0.182660        -2.311227
 H         3.626637         1.773677        -1.223902
