19
Iteration:  4284
 C         0.091089        -0.299481        -0.143142
 C         1.594448        -0.060134        -0.065294
 C         2.182463        -0.466261         1.320042
 O         3.436513         0.245309         1.444129
 C         4.156851         0.207494         0.102321
 C         3.829469        -1.204342        -0.770878
 C         2.599219        -0.464632        -1.201752
 C         3.140576         0.929377        -0.940887
 O         1.920158         1.370623        -0.290885
 H        -0.494526         0.249427         0.634073
 H        -0.154653        -0.019024        -1.143650
 H        -0.182050        -1.386763        -0.042671
 H         1.511923         0.032191         2.097478
 H         2.316617        -1.561200         1.460289
 H         5.108953         0.593273         0.393542
 H         4.574656        -1.412685        -1.654857
 H         3.800199        -2.225212        -0.314133
 H         2.201221        -0.815288        -2.217894
 H         3.445518         1.696026        -1.610340
