19
Iteration:  3048charge 0 multiplicity 1
 C         0.059291        -0.247345        -0.336009
 C         1.592185        -0.043070        -0.048759
 C         2.217702        -0.822025         1.134431
 O         3.644410        -0.383304         1.305216
 C         4.071036         0.212576         0.121274
 C         3.956089        -0.752478        -1.070080
 C         2.552870        -0.097040        -1.296278
 C         3.010064         1.162524        -0.543849
 O         1.820664         1.321027         0.201554
 H        -0.587654         0.662887        -0.245344
 H        -0.111982        -0.638883        -1.320719
 H        -0.461814        -0.966557         0.340814
 H         1.820928        -0.687938         2.149670
 H         2.177020        -1.871078         0.839579
 H         5.097123         0.488311         0.358766
 H         4.725129        -0.461611        -1.750499
 H         4.011705        -1.845951        -1.233171
 H         2.006253        -0.085123        -2.219871
 H         3.337659         2.133409        -0.881378
