19
Iteration:  1639
 C         0.129609        -0.370225        -0.467577
 C         1.646873        -0.114420        -0.019088
 C         2.282275        -0.893127         1.108680
 O         3.543222        -0.200376         1.367319
 C         4.019927         0.178910         0.105767
 C         3.784673        -0.814831        -1.001913
 C         2.549285        -0.073747        -1.301270
 C         3.055592         1.180744        -0.591827
 O         1.905960         1.405796         0.294849
 H        -0.356598        -0.789375         0.510868
 H        -0.156996         0.635302        -0.647860
 H        -0.050363        -1.060687        -1.353890
 H         1.631073        -0.836729         1.882589
 H         2.421197        -1.980893         0.724387
 H         5.047880         0.610988         0.059140
 H         4.624135        -0.584464        -1.842061
 H         3.678043        -1.891157        -0.818365
 H         1.960866         0.004608        -2.337918
 H         3.360188         2.181836        -1.080945
