19
Iteration:  1182charge 0 multiplicity 1
 C         0.106193        -0.309344        -0.189331
 C         1.575033        -0.077255        -0.080834
 C         2.219460        -1.053929         0.949720
 O         3.530190        -0.571064         1.237852
 C         4.130699         0.195042         0.151644
 C         3.951293        -0.517175        -1.130586
 C         2.679968         0.100105        -1.333387
 C         3.008113         1.308679        -0.445096
 O         1.766751         1.312500         0.303803
 H        -0.512107         0.607701         0.031185
 H        -0.192027        -0.499439        -1.158238
 H        -0.308427        -1.215286         0.282428
 H         1.713811        -0.972585         1.906105
 H         2.230018        -2.083369         0.544722
 H         5.072835         0.523010         0.538691
 H         4.668711        -0.163901        -1.915218
 H         4.124012        -1.560216        -1.043493
 H         2.073676         0.172592        -2.391773
 H         3.292188         2.258443        -0.850343
