19
Iteration:  4481charge 0 multiplicity 1
 C         0.122803        -0.323120        -0.148297
 C         1.574551        -0.046261        -0.110688
 C         2.163860        -0.195604         1.290240
 O         3.516702         0.173276         1.415780
 C         4.129779         0.191993         0.127194
 C         3.868005        -1.234950        -0.508422
 C         2.584278        -0.636883        -1.113724
 C         3.087693         0.826171        -1.004151
 O         1.883060         1.434257        -0.469901
 H        -0.368764         0.083764         0.769788
 H        -0.256217         0.142770        -1.028699
 H        -0.060093        -1.409833        -0.235933
 H         1.556139         0.686254         1.798685
 H         2.093706        -1.143261         1.893650
 H         5.133412         0.634480         0.233757
 H         4.508901        -1.298401        -1.468292
 H         3.924691        -2.121281         0.150550
 H         2.155508        -0.957917        -2.157444
 H         3.509030         1.390492        -1.824091
