19
Iteration:  3639
 C         0.084626        -0.342468        -0.347063
 C         1.530895         0.040755        -0.019733
 C         2.227048        -0.612986         1.290494
 O         3.646377        -0.159937         1.369104
 C         4.102345         0.171114         0.095145
 C         3.961564        -0.993231        -0.923597
 C         2.464956        -0.325574        -1.250162
 C         3.005364         1.068679        -0.719547
 O         1.859338         1.471499        -0.016129
 H         0.100166        -1.266837        -0.958172
 H        -0.589453        -0.438840         0.578259
 H        -0.454812         0.345137        -1.038462
 H         1.798952        -0.165899         2.170704
 H         2.297022        -1.722142         1.103505
 H         5.021154         0.571982         0.415620
 H         4.634265        -0.944869        -1.700470
 H         4.091052        -1.962520        -0.482311
 H         2.078800        -0.604180        -2.240774
 H         3.374451         1.829648        -1.332661
