19
Iteration:  2121
 C         0.041887        -0.409593        -0.393491
 C         1.580562        -0.000140        -0.056667
 C         2.224853        -0.792961         1.127298
 O         3.574045        -0.326792         1.356829
 C         4.094036         0.225444         0.094659
 C         3.871242        -0.786523        -1.031277
 C         2.545784        -0.058585        -1.321729
 C         3.107348         1.212414        -0.559912
 O         1.885383         1.335310         0.229596
 H        -0.622016        -0.648470         0.474757
 H        -0.387466         0.449360        -0.989727
 H         0.099266        -1.422665        -0.911430
 H         1.717110        -0.639575         2.034196
 H         2.206093        -1.969391         0.955249
 H         5.107680         0.460980         0.462174
 H         4.657108        -0.663248        -1.847103
 H         3.707084        -1.826892        -0.804996
 H         2.235947        -0.066291        -2.358848
 H         3.306019         2.204990        -1.027155
