19
Iteration:  1178
 C         0.108935        -0.279389        -0.217707
 C         1.619041        -0.101315        -0.061188
 C         2.213183        -1.055668         0.925091
 O         3.538052        -0.522956         1.244443
 C         4.104788         0.209622         0.141512
 C         3.969011        -0.530247        -1.127414
 C         2.639601         0.074685        -1.350744
 C         3.010219         1.281157        -0.412810
 O         1.777869         1.304138         0.325928
 H        -0.496811         0.597012         0.071192
 H        -0.345752        -0.571374        -1.281105
 H        -0.334601        -1.178075         0.309178
 H         1.571834        -1.054209         1.969689
 H         2.307146        -2.046605         0.482611
 H         5.081968         0.522805         0.553131
 H         4.521939        -0.108215        -1.946673
 H         4.035928        -1.630532        -1.197949
 H         2.281442         0.180522        -2.248169
 H         3.309584         2.288106        -0.921115
