19
Iteration:   642
 C         0.159467        -0.364559        -0.429130
 C         1.595711        -0.140729        -0.115920
 C         2.311730        -1.081550         0.859807
 O         3.528972        -0.448640         1.279228
 C         4.104897         0.167496         0.158813
 C         3.781360        -0.537770        -1.203246
 C         2.514496         0.215646        -1.294306
 C         3.037296         1.316626        -0.331751
 O         1.874025         1.240596         0.533587
 H        -0.310732        -1.167893         0.092649
 H        -0.368073         0.699575        -0.396005
 H         0.083772        -0.540066        -1.440778
 H         1.585872        -1.165331         1.670424
 H         2.531291        -2.046745         0.346604
 H         5.148971         0.383859         0.346291
 H         4.544986        -0.399281        -2.004051
 H         3.877708        -1.542405        -1.079861
 H         1.958652         0.493573        -2.241418
 H         3.402501         2.395374        -0.342964
