19
Iteration:  1955charge 0 multiplicity 1
 C         0.136094        -0.369381        -0.237233
 C         1.615123        -0.044069        -0.094274
 C         2.145564        -0.732824         1.164448
 O         3.571799        -0.590213         1.262748
 C         4.054230         0.245507         0.161859
 C         4.027176        -0.673484        -1.062716
 C         2.525671        -0.036369        -1.287384
 C         3.051229         1.203742        -0.543811
 O         1.812058         1.360403         0.098616
 H        -0.644508         0.062029         0.483379
 H        -0.292275        -0.068123        -1.203161
 H        -0.057676        -1.413866        -0.155411
 H         1.531461        -0.209971         1.993939
 H         1.813710        -1.845616         1.205833
 H         5.037545         0.754982         0.519405
 H         4.568891        -0.374469        -1.975686
 H         4.247400        -1.652267        -0.834220
 H         2.222968         0.054398        -2.352325
 H         3.733885         1.935007        -1.005953
