19
Iteration:  1864
 C         0.058653        -0.299603        -0.389687
 C         1.510481        -0.096324        -0.085470
 C         2.259160        -0.845382         1.126048
 O         3.595562        -0.304763         1.327559
 C         4.087504         0.192796         0.127969
 C         3.914813        -0.734856        -1.040956
 C         2.552982        -0.087044        -1.233065
 C         3.067429         1.168305        -0.568108
 O         1.861678         1.343855         0.213079
 H        -0.599536        -0.494475         0.440026
 H        -0.204128         0.570697        -0.997405
 H         0.061717        -1.232623        -1.020350
 H         1.793974        -0.670800         2.011985
 H         2.224369        -2.000812         0.911139
 H         5.028749         0.759334         0.354103
 H         4.561705        -0.619487        -1.870954
 H         3.859921        -1.830947        -0.838994
 H         2.005183        -0.047725        -2.250480
 H         3.504641         2.058537        -0.952847
