19
Iteration:  3337
 C         0.132277        -0.411152        -0.176119
 C         1.587188        -0.075954        -0.126095
 C         2.091940        -0.756964         1.210878
 O         3.512945        -0.188257         1.349726
 C         4.075151         0.130436         0.123442
 C         3.874679        -0.884864        -1.108203
 C         2.577579        -0.115682        -1.354654
 C         3.143316         1.174990        -0.607578
 O         1.868067         1.411662         0.102805
 H        -0.300800        -0.776341        -1.117776
 H         0.002315        -1.241904         0.559162
 H        -0.458465         0.518133         0.217917
 H         1.541838        -0.331899         2.069325
 H         2.355744        -1.797476         1.124432
 H         5.117847         0.557455         0.345994
 H         4.686730        -0.721584        -1.873115
 H         4.038299        -1.936897        -0.938239
 H         2.322467         0.081468        -2.468202
 H         3.769948         2.040186        -1.031901
