19
Iteration:  1741
 C         0.056061        -0.308276        -0.353101
 C         1.507785        -0.090858        -0.078504
 C         2.202852        -0.814030         1.091654
 O         3.593552        -0.298350         1.346810
 C         4.107840         0.218756         0.118133
 C         3.953624        -0.753067        -1.053168
 C         2.547527        -0.041924        -1.323633
 C         3.055030         1.158576        -0.561772
 O         1.878163         1.262190         0.284012
 H        -0.496246         0.332932         0.340608
 H        -0.226977         0.179205        -1.346935
 H        -0.116429        -1.361352        -0.237540
 H         1.509911        -0.731007         1.826113
 H         2.392741        -1.934590         0.847345
 H         5.003342         0.695132         0.388848
 H         4.534927        -0.463983        -1.935006
 H         3.989345        -1.863359        -0.860160
 H         2.204850        -0.114941        -2.477546
 H         3.453314         2.098753        -1.033708
