19
Iteration:  3498charge 0 multiplicity 1
 C         0.050508        -0.342059        -0.370741
 C         1.564606        -0.106389         0.007281
 C         2.252595        -0.629595         1.344304
 O         3.496003        -0.039072         1.351616
 C         4.145118         0.165547         0.115028
 C         3.879951        -1.018528        -1.018502
 C         2.537352        -0.205559        -1.317961
 C         3.063059         1.101378        -0.694562
 O         1.927800         1.358320         0.097201
 H        -0.461476        -0.935773         0.425434
 H        -0.352778         0.753728        -0.585368
 H        -0.077736        -0.843445        -1.361124
 H         1.612451        -0.152238         2.130911
 H         2.400835        -1.738360         1.315057
 H         5.112256         0.558926         0.316624
 H         4.552515        -0.893412        -1.950780
 H         3.970030        -2.220130        -0.907429
 H         2.015592        -0.402422        -2.278587
 H         3.493196         1.887030        -1.387651
