19
Iteration:  1239
 C         0.155994        -0.451425        -0.413232
 C         1.612468        -0.073331        -0.097602
 C         2.188819        -0.918043         1.128127
 O         3.537064        -0.483787         1.304068
 C         4.111789         0.109280         0.100333
 C         3.849063        -0.605217        -1.243031
 C         2.605679         0.162477        -1.314397
 C         3.041708         1.317213        -0.436533
 O         1.856576         1.313459         0.389599
 H        -0.490672         0.004533         0.312693
 H        -0.044786        -0.044293        -1.343321
 H         0.016755        -1.508998        -0.380577
 H         1.708634        -0.830983         2.055650
 H         2.081744        -2.003700         0.836247
 H         5.076185         0.563938         0.354212
 H         4.560632        -0.191075        -1.999924
 H         3.970155        -1.711315        -1.149914
 H         1.667976         0.361193        -2.060204
 H         3.335183         2.280273        -0.728800
