19
Iteration:   533
 C         0.154138        -0.370747        -0.427124
 C         1.594835        -0.097565        -0.092257
 C         2.300901        -1.132471         0.792150
 O         3.542412        -0.599002         1.250597
 C         4.130410         0.240798         0.124549
 C         3.809465        -0.503301        -1.237046
 C         2.512909         0.302377        -1.251941
 C         3.043387         1.327406        -0.281659
 O         1.865757         1.268008         0.561669
 H        -0.352439         0.477935        -0.785982
 H         0.152061        -1.050106        -1.350881
 H        -0.344265        -0.850981         0.308607
 H         1.647327        -1.357645         1.749133
 H         2.445077        -2.149409         0.337846
 H         5.109746         0.470913         0.499220
 H         4.550844        -0.307742        -2.007683
 H         3.583925        -1.490698        -1.096796
 H         1.817381         0.633217        -2.187763
 H         3.273574         2.406805        -0.296446
