19
Iteration:  4363charge 0 multiplicity 1
 C         0.046997        -0.324817        -0.156524
 C         1.560939        -0.062659        -0.118303
 C         2.120629        -0.240254         1.378176
 O         3.560398         0.161822         1.437222
 C         4.119366         0.214574         0.179998
 C         3.890904        -1.177603        -0.765480
 C         2.588958        -0.539855        -1.167639
 C         3.146010         0.813573        -0.926235
 O         1.899992         1.386790        -0.375302
 H        -0.061692        -1.438887        -0.416792
 H        -0.442879        -0.113577         0.879420
 H        -0.503586         0.246729        -0.918164
 H         1.438643         0.441184         1.937974
 H         1.962591        -1.313210         1.538763
 H         5.190915         0.577207         0.234049
 H         4.635676        -1.105373        -1.637516
 H         3.864314        -2.150185        -0.293626
 H         2.182517        -0.879843        -2.116703
 H         3.648641         1.467473        -1.628560
