19
Iteration:  4788charge 0 multiplicity 1
 C         0.091631        -0.411001        -0.166178
 C         1.544040         0.051072        -0.025663
 C         2.077291         0.066010         1.398086
 O         3.488770         0.537283         1.314352
 C         4.129682         0.204881         0.100356
 C         3.827357        -1.385719        -0.345707
 C         2.507964        -0.771953        -1.033065
 C         3.174581         0.574845        -1.142486
 O         2.065664         1.355323        -0.583098
 H         0.075759        -1.123463        -1.097577
 H        -0.320021        -0.925910         0.782600
 H        -0.588207         0.468043        -0.303528
 H         1.459816         0.721462         2.029055
 H         2.097183        -0.979524         1.778026
 H         5.212325         0.403039         0.121464
 H         4.571008        -1.677269        -1.105857
 H         3.789407        -2.087094         0.460778
 H         2.105962        -1.226037        -2.018940
 H         3.464018         0.926048        -2.124284
