19
Iteration:  2314
 C         0.070823        -0.287850        -0.307189
 C         1.515133        -0.153661        -0.066674
 C         2.194470        -0.742088         1.163982
 O         3.552045        -0.393205         1.309168
 C         4.083757         0.211467         0.149597
 C         4.008114        -0.755319        -1.147329
 C         2.587111        -0.115426        -1.283155
 C         3.084544         1.157506        -0.522826
 O         1.814767         1.377585         0.155395
 H        -0.255500        -0.968060         0.534038
 H        -0.337737         0.766182        -0.315952
 H        -0.176374        -0.898216        -1.143685
 H         1.545279        -0.423830         2.128427
 H         2.051604        -1.845615         0.852867
 H         5.090593         0.650035         0.455942
 H         4.630922        -0.255866        -1.779257
 H         4.409446        -1.784226        -1.028199
 H         2.216137        -0.173272        -2.342048
 H         3.390263         2.093610        -0.960283
