19
Iteration:   942charge 0 multiplicity 1
 C         0.079881        -0.490206        -0.269521
 C         1.523770        -0.017777        -0.141446
 C         2.207701        -0.912903         1.001859
 O         3.634075        -0.692628         1.199807
 C         4.167707         0.171202         0.201788
 C         3.924599        -0.536550        -1.184167
 C         2.564986         0.180597        -1.318932
 C         3.049402         1.298172        -0.333302
 O         1.763358         1.381793         0.290562
 H        -0.312735         0.363418        -1.001040
 H         0.136123        -1.402968        -0.873098
 H        -0.575628        -0.642522         0.662532
 H         1.736498        -0.451868         1.922527
 H         2.010213        -2.028643         0.885537
 H         5.114981         0.542056         0.572195
 H         4.629525        -0.088912        -1.979410
 H         4.081380        -1.698374        -1.102775
 H         2.077717         0.538467        -2.104140
 H         3.489207         2.212987        -0.631087
