19
Iteration:  1496charge 0 multiplicity 1
 C         0.126139        -0.363858        -0.405383
 C         1.645096        -0.118356        -0.074940
 C         2.135657        -0.875169         1.116301
 O         3.565930        -0.279964         1.365908
 C         4.118039         0.192148         0.086090
 C         3.870727        -0.757483        -1.156381
 C         2.562129         0.028444        -1.304583
 C         3.042546         1.194379        -0.511154
 O         1.854081         1.298146         0.326678
 H        -0.145325         0.082943        -1.349638
 H        -0.071668        -1.398943        -0.342230
 H        -0.428660         0.279673         0.330532
 H         1.550749        -0.803412         1.950683
 H         2.388124        -1.952540         0.853962
 H         5.062260         0.546275         0.551410
 H         4.582584        -0.519333        -2.000071
 H         3.822244        -1.825387        -1.006205
 H         2.032290         0.204358        -2.429100
 H         3.447362         2.183610        -0.959346
