19
Iteration:  1138
 C         0.065575        -0.334096        -0.446148
 C         1.539449        -0.118589        -0.090821
 C         2.284722        -1.072962         0.990684
 O         3.565186        -0.364613         1.276949
 C         4.113740         0.232624         0.132787
 C         3.826134        -0.644531        -1.171751
 C         2.558901         0.137159        -1.255661
 C         3.021147         1.308704        -0.424834
 O         1.897307         1.233269         0.464024
 H        -0.341276         0.681363        -0.199085
 H        -0.021724        -0.507723        -1.439494
 H        -0.217916        -1.152398         0.229998
 H         1.776806        -1.219064         1.908660
 H         2.495161        -2.020376         0.465219
 H         5.161005         0.436778         0.232306
 H         4.669145        -0.380619        -1.880385
 H         3.758576        -1.747389        -1.241367
 H         2.075829         0.281436        -2.451859
 H         3.290413         2.317747        -0.605040
