19
Iteration:  3480charge 0 multiplicity 1
 C         0.156188        -0.352217        -0.311777
 C         1.610045        -0.047558        -0.041651
 C         2.186110        -0.703018         1.205060
 O         3.556467        -0.085226         1.389512
 C         4.073620         0.167546         0.059354
 C         3.810519        -0.938408        -0.940070
 C         2.518531        -0.255302        -1.243536
 C         3.081918         1.061484        -0.748582
 O         1.891985         1.432259         0.058665
 H        -0.326253        -0.676369         0.587860
 H        -0.300925         0.514551        -0.601236
 H         0.189418        -1.189452        -1.015349
 H         1.622501        -0.360544         2.054719
 H         2.270034        -1.806137         1.036488
 H         5.129716         0.494035         0.257144
 H         4.631059        -0.904673        -1.650043
 H         3.776271        -1.890202        -0.497317
 H         2.014141        -0.197448        -2.213346
 H         3.538076         1.973593        -1.206325
