19
Iteration:  2806charge 0 multiplicity 1
 C         0.174433        -0.289459        -0.386260
 C         1.571598        -0.192666        -0.017356
 C         2.152145        -0.777508         1.216982
 O         3.582705        -0.457702         1.289957
 C         4.134730         0.228302         0.090424
 C         3.970813        -0.720659        -1.167270
 C         2.552474        -0.043599        -1.302706
 C         3.000855         1.181418        -0.577447
 O         1.811465         1.379434         0.279824
 H        -0.319759         0.629387        -0.722389
 H        -0.003356        -1.128206        -1.170775
 H        -0.488093        -0.620949         0.529027
 H         1.591213        -0.290020         2.026816
 H         2.141905        -1.812536         1.292491
 H         5.118613         0.724027         0.434848
 H         4.568968        -0.343731        -2.017905
 H         3.906822        -1.837896        -0.865106
 H         2.022515        -0.125715        -2.231295
 H         3.435492         2.112390        -0.994465
