19
Iteration:  4649
 C         0.083291        -0.364250        -0.209546
 C         1.575221        -0.013953        -0.038856
 C         2.179412        -0.090212         1.420860
 O         3.527751         0.451065         1.379682
 C         4.165996         0.182095         0.084494
 C         3.757120        -1.376975        -0.393808
 C         2.600220        -0.677642        -1.104946
 C         3.127158         0.745989        -1.047327
 O         1.932906         1.360438        -0.617470
 H        -0.520433         0.480253        -0.163841
 H        -0.020312        -0.924730        -1.132497
 H        -0.195997        -1.016011         0.583557
 H         1.577980         0.530860         2.149449
 H         2.203310        -1.086533         1.745006
 H         5.177320         0.562540         0.269707
 H         4.406936        -1.857869        -1.177194
 H         3.466547        -2.047460         0.450406
 H         2.206469        -1.182848        -1.955549
 H         3.434925         1.411898        -1.851279
