19
Iteration:  1291
 C         0.018428        -0.295831        -0.289444
 C         1.558083        -0.106371        -0.091983
 C         2.245358        -1.050922         0.937439
 O         3.519559        -0.413765         1.246468
 C         4.151948         0.274697         0.163361
 C         3.975466        -0.674330        -1.086298
 C         2.614206         0.024202        -1.323222
 C         3.048751         1.239218        -0.467760
 O         1.832028         1.352505         0.350064
 H        -0.494117        -0.971431         0.550666
 H        -0.412397         0.708393        -0.327185
 H        -0.089241        -0.778534        -1.350991
 H         1.702028        -1.127725         2.026446
 H         2.362589        -2.096457         0.580514
 H         5.056532         0.748549         0.537675
 H         4.583548        -0.436532        -1.994591
 H         3.904219        -1.725613        -0.900504
 H         2.023370         0.195519        -2.208772
 H         3.356045         2.224694        -0.886559
