19
Iteration:  1800charge 0 multiplicity 1
 C         0.046680        -0.431272        -0.279311
 C         1.562515        -0.044055        -0.114629
 C         2.164697        -0.770381         1.021236
 O         3.579692        -0.433312         1.331969
 C         4.144180         0.139440         0.188693
 C         3.929510        -0.667657        -1.055854
 C         2.562389        -0.002242        -1.292522
 C         3.071242         1.191843        -0.547345
 O         1.855926         1.407336         0.178489
 H        -0.478453         0.220740         0.421873
 H        -0.339252        -0.463061        -1.270416
 H        -0.111465        -1.463429         0.202789
 H         1.509064        -0.551790         1.958883
 H         2.301671        -1.783257         0.923906
 H         5.220835         0.524689         0.452825
 H         4.587352        -0.505925        -1.877133
 H         3.838585        -1.722224        -0.931618
 H         2.264559        -0.202562        -2.384023
 H         3.427166         2.067836        -1.035628
