19
Iteration:  1673
 C         0.059528        -0.467677        -0.329802
 C         1.592392        -0.093220        -0.123901
 C         2.144909        -0.741000         1.134252
 O         3.556828        -0.330321         1.326898
 C         4.136343         0.153023         0.124970
 C         3.894660        -0.801018        -1.083646
 C         2.619190         0.045019        -1.288423
 C         3.085739         1.186328        -0.534311
 O         1.839516         1.389942         0.205018
 H        -0.414286        -0.931392         0.634946
 H        -0.465760         0.475185        -0.437285
 H        -0.016958        -1.150952        -1.167901
 H         1.805465        -0.418753         2.029940
 H         1.979237        -1.881818         1.128048
 H         5.148231         0.505684         0.260612
 H         4.594178        -0.549078        -1.979638
 H         3.967299        -1.867573        -0.778079
 H         2.090874         0.043521        -2.312450
 H         3.540953         2.136884        -1.005587
