19
Iteration:  3953charge 0 multiplicity 1
 C         0.102405        -0.353488        -0.294683
 C         1.593386        -0.010294        -0.028930
 C         2.267518        -0.562599         1.196755
 O         3.534679        -0.031854         1.406524
 C         4.090171         0.174825         0.089797
 C         3.798064        -1.083758        -0.913186
 C         2.530722        -0.258479        -1.254724
 C         3.101044         1.085517        -0.786151
 O         1.893742         1.376150         0.025952
 H        -0.162824        -0.738951        -1.321599
 H        -0.154241        -1.341003         0.288727
 H        -0.549572         0.498024         0.066097
 H         1.581013        -0.282288         2.031506
 H         2.353178        -1.633758         1.217136
 H         5.150515         0.513118         0.239814
 H         4.602443        -1.122653        -1.621173
 H         3.831358        -2.110524        -0.687801
 H         2.080170        -0.426408        -2.252848
 H         3.577266         1.939846        -1.316461
