19
Iteration:  2242charge 0 multiplicity 1
 C         0.100627        -0.412869        -0.384732
 C         1.604490        -0.037341        -0.045354
 C         2.167382        -0.807665         1.184311
 O         3.541899        -0.343094         1.358208
 C         4.092045         0.157933         0.133287
 C         3.874343        -0.754827        -1.069970
 C         2.556082        -0.034470        -1.347793
 C         3.071615         1.240087        -0.555781
 O         1.908461         1.334678         0.194379
 H        -0.542041        -0.121294         0.434926
 H        -0.094635         0.146294        -1.303854
 H        -0.058155        -1.553891        -0.344543
 H         1.692713        -0.466234         2.035265
 H         2.200306        -1.907328         1.100483
 H         5.159972         0.443674         0.283592
 H         4.538119        -0.396614        -2.014311
 H         3.878582        -1.846620        -1.131226
 H         1.927705         0.077060        -2.242246
 H         3.457819         2.239770        -0.950305
