19
Iteration:  4437charge 0 multiplicity 1
 C         0.066918        -0.308371        -0.239731
 C         1.565220        -0.120399        -0.043471
 C         2.203989        -0.272831         1.371773
 O         3.510300         0.330280         1.367953
 C         4.106966         0.177135         0.130867
 C         3.874357        -1.213643        -0.644601
 C         2.569610        -0.595663        -1.092304
 C         3.111970         0.807276        -0.942311
 O         1.948035         1.395538        -0.394175
 H        -0.400232         0.608170        -0.587730
 H        -0.145677        -1.096845        -0.896792
 H        -0.418461        -0.502996         0.706550
 H         1.498764         0.310263         2.077156
 H         2.070727        -1.385198         1.574059
 H         5.071587         0.621487         0.264017
 H         4.555807        -1.263063        -1.577580
 H         3.798906        -2.163073        -0.082425
 H         2.035605        -0.925265        -2.059788
 H         3.580133         1.211067        -1.824534
