19
Iteration:  2222charge 0 multiplicity 1
 C         0.170671        -0.315230        -0.362362
 C         1.635007        -0.123214        -0.034520
 C         2.149829        -0.746251         1.225489
 O         3.560809        -0.518908         1.315550
 C         4.110322         0.232427         0.125481
 C         3.933266        -0.683652        -1.153731
 C         2.573981        -0.094897        -1.300691
 C         2.985362         1.143899        -0.584237
 O         1.786868         1.444863         0.199869
 H        -0.482619         0.317042         0.263588
 H         0.033103        -0.132700        -1.445188
 H        -0.165230        -1.459295        -0.122242
 H         1.721379        -0.340316         2.129360
 H         2.093038        -1.880286         1.155403
 H         5.015174         0.580430         0.533771
 H         4.677644        -0.379654        -1.942885
 H         4.185759        -1.663087        -0.843954
 H         2.008406        -0.051335        -2.217763
 H         3.609106         1.924182        -1.069711
