19
Iteration:  4348charge 0 multiplicity 1
 C         0.085845        -0.355748        -0.172035
 C         1.549196        -0.043118         0.016302
 C         2.172411        -0.249309         1.340467
 O         3.485805         0.117507         1.412830
 C         4.100987         0.129262         0.090909
 C         3.930720        -1.131297        -0.685912
 C         2.550006        -0.517369        -1.237240
 C         3.129596         0.899472        -0.908973
 O         1.925456         1.368350        -0.382819
 H        -0.240929        -1.322015         0.022574
 H        -0.508969         0.233594         0.398456
 H        -0.005173        -0.131071        -1.227115
 H         1.620446         0.392979         2.161349
 H         2.012651        -1.199299         1.898262
 H         5.068785         0.552843         0.148732
 H         4.673390        -1.205038        -1.576074
 H         4.021356        -2.096329        -0.063003
 H         1.990907        -0.673813        -2.237563
 H         3.526799         1.592721        -1.672963
