19
Iteration:  2341
 C         0.025945        -0.312543        -0.341276
 C         1.545306        -0.169705        -0.031755
 C         2.131528        -0.745498         1.204574
 O         3.571755        -0.480121         1.296915
 C         4.147133         0.282256         0.159350
 C         3.970283        -0.726900        -1.119603
 C         2.580472        -0.052097        -1.263725
 C         3.062675         1.165598        -0.639641
 O         1.865549         1.352461         0.194952
 H        -0.279395        -0.965620         0.448567
 H        -0.462356         0.619881        -0.311554
 H        -0.037866        -0.799197        -1.363340
 H         1.696711        -0.136975         1.999767
 H         1.951442        -1.871631         1.274573
 H         5.093874         0.678601         0.546636
 H         4.789799        -0.411110        -1.967330
 H         4.196391        -1.779196        -0.935334
 H         2.162649        -0.022326        -2.286173
 H         3.294989         2.119606        -1.217121
