19
Iteration:  1515
 C         0.168800        -0.374332        -0.429625
 C         1.586502        -0.037872        -0.108827
 C         2.321446        -0.903831         1.106185
 O         3.490797        -0.277169         1.295056
 C         4.082589         0.196173         0.117597
 C         3.804475        -0.790648        -1.053070
 C         2.511147         0.001883        -1.312822
 C         3.010622         1.263048        -0.522004
 O         1.912601         1.302323         0.333759
 H        -0.032239         0.408055        -1.109983
 H         0.207383        -1.408800        -0.942557
 H        -0.471046        -0.249186         0.477146
 H         1.735585        -0.708823         2.010900
 H         2.292737        -1.993997         0.888572
 H         5.153442         0.414314         0.325261
 H         4.648625        -0.716872        -1.766488
 H         3.680005        -1.908301        -0.880112
 H         2.043453         0.031798        -2.268362
 H         3.421513         2.171186        -0.687934
