19
Iteration:  2594
 C         0.048765        -0.292301        -0.337094
 C         1.600947        -0.126901        -0.015333
 C         2.144661        -0.839945         1.119948
 O         3.557241        -0.508621         1.272068
 C         4.210129         0.204622         0.112821
 C         3.976589        -0.653725        -1.199206
 C         2.592985        -0.037386        -1.241754
 C         3.059501         1.223351        -0.520587
 O         1.763229         1.346450         0.270760
 H        -0.094783        -0.408224        -1.456917
 H        -0.205598        -1.219745         0.267646
 H        -0.509167         0.670379        -0.029996
 H         1.674964        -0.539162         2.094938
 H         2.189793        -1.997050         0.967776
 H         5.112642         0.589747         0.572723
 H         4.490220        -0.072242        -2.054901
 H         4.174601        -1.727375        -1.165300
 H         2.020305         0.112605        -2.180055
 H         3.379299         2.134730        -1.050732
