19
Iteration:  3521charge 0 multiplicity 1
 C         0.085989        -0.288202        -0.268528
 C         1.547505        -0.082757        -0.090220
 C         2.168521        -0.622130         1.225458
 O         3.609197        -0.130467         1.390732
 C         4.102912         0.186450         0.093895
 C         3.911235        -0.877862        -0.918772
 C         2.512138        -0.269438        -1.278724
 C         3.096437         1.083317        -0.683960
 O         1.879058         1.309807         0.026328
 H        -0.307188        -1.094118         0.354767
 H        -0.473038         0.686728        -0.253388
 H        -0.110619        -0.573260        -1.343485
 H         1.611957        -0.002515         1.969898
 H         2.182290        -1.727009         1.377871
 H         5.126026         0.523182         0.110320
 H         4.476837        -0.864202        -1.902416
 H         4.072153        -1.980166        -0.517900
 H         2.046319        -0.467928        -2.266582
 H         3.432789         1.772825        -1.478320
