19
Iteration:  4501
 C         0.022649        -0.356001        -0.125352
 C         1.611385         0.005009        -0.056046
 C         2.090344        -0.160652         1.383675
 O         3.524729         0.251310         1.413471
 C         4.117773         0.169806         0.127310
 C         3.848567        -1.206580        -0.584957
 C         2.604600        -0.545909        -1.170272
 C         3.170451         0.814226        -0.990077
 O         1.930329         1.297906        -0.532347
 H        -0.407648        -0.568523         0.899960
 H        -0.556017         0.462037        -0.618111
 H        -0.086911        -1.240204        -0.866189
 H         1.763802         0.422265         2.209321
 H         2.172046        -1.184588         1.591449
 H         5.133879         0.445928         0.091155
 H         4.669254        -1.567566        -1.180034
 H         3.644036        -1.933879         0.191689
 H         2.074217        -1.017897        -2.076619
 H         3.688853         1.464166        -1.703972
