19
Iteration:   680charge 0 multiplicity 1
 C         0.093820        -0.411840        -0.403095
 C         1.565905        -0.106500        -0.082320
 C         2.181407        -0.995371         0.977187
 O         3.596671        -0.617178         1.207237
 C         4.143535         0.212338         0.139316
 C         3.912732        -0.462043        -1.200543
 C         2.532463         0.202086        -1.316116
 C         3.059106         1.292646        -0.301966
 O         1.824060         1.311817         0.440374
 H        -0.221766        -1.486157        -0.339873
 H        -0.466470         0.146425         0.254217
 H        -0.184237        -0.123009        -1.485907
 H         1.599950        -0.969858         2.053225
 H         2.244333        -2.118729         0.757497
 H         5.206459         0.353157         0.470670
 H         4.528406        -0.063136        -1.993573
 H         3.890818        -1.624986        -1.189736
 H         2.192693         0.464439        -2.451082
 H         3.573769         2.216485        -0.506469
