19
Iteration:  4087
 C         0.019651        -0.362771        -0.227660
 C         1.565402        -0.083111        -0.025279
 C         2.169396        -0.476336         1.322229
 O         3.546128        -0.005041         1.422020
 C         4.141993         0.209164         0.032080
 C         3.852705        -1.063115        -0.866238
 C         2.532469        -0.365154        -1.290171
 C         3.133715         1.038390        -0.774809
 O         1.941850         1.396322        -0.126027
 H        -0.552276        -0.551780         0.720347
 H        -0.393400         0.502864        -0.872406
 H        -0.158274        -1.252855        -1.064767
 H         1.610777         0.104317         2.167477
 H         2.192807        -1.645214         1.598250
 H         5.121512         0.576643         0.054757
 H         4.635488        -1.045556        -1.716400
 H         3.921102        -2.068641        -0.380308
 H         2.093868        -0.697420        -2.287848
 H         3.702390         1.755198        -1.331020
