19
Iteration:  2705
 C         0.096226        -0.297626        -0.354347
 C         1.552647        -0.008797         0.009333
 C         2.197948        -0.875075         1.171163
 O         3.621534        -0.538421         1.152448
 C         4.122268         0.292608         0.118285
 C         3.968453        -0.708213        -1.103025
 C         2.608900        -0.066966        -1.219395
 C         3.063202         1.189008        -0.480802
 O         1.741199         1.364353         0.191231
 H        -0.115032        -0.131860        -1.490557
 H        -0.384959        -1.332911        -0.074493
 H        -0.587840         0.322756         0.205994
 H         1.943489        -0.547702         2.160134
 H         1.910009        -1.898948         1.126363
 H         5.009622         0.749153         0.425910
 H         4.589404        -0.292121        -1.949968
 H         4.067357        -1.806066        -0.856913
 H         2.067414        -0.016207        -2.155027
 H         3.347115         2.123666        -0.915447
