19
Iteration:  2466
 C         0.021984        -0.301627        -0.343860
 C         1.525242        -0.118201        -0.052757
 C         2.205718        -0.785387         1.153527
 O         3.651477        -0.498205         1.330415
 C         4.177592         0.243786         0.123003
 C         3.981231        -0.643847        -1.082852
 C         2.510593        -0.050028        -1.312898
 C         3.025373         1.149991        -0.548996
 O         1.805145         1.355136         0.215165
 H        -0.414016         0.674508         0.041195
 H         0.090286        -0.205205        -1.465933
 H        -0.364667        -1.226405        -0.056667
 H         1.674130        -0.556664         2.106033
 H         2.117801        -1.860801         0.956139
 H         5.174869         0.592268         0.384790
 H         4.693061        -0.424217        -1.904322
 H         3.917913        -1.796578        -1.070067
 H         1.972924        -0.161038        -2.223341
 H         3.423295         2.002334        -1.041404
