19
Iteration:   844charge 0 multiplicity 1
 C         0.126123        -0.391835        -0.249435
 C         1.581730        -0.062262        -0.135310
 C         2.193554        -0.991882         0.959478
 O         3.541798        -0.641097         1.222487
 C         4.052975         0.251939         0.218555
 C         3.990072        -0.521774        -1.180777
 C         2.560996         0.128740        -1.325580
 C         3.073141         1.282141        -0.427249
 O         1.826410         1.314579         0.328430
 H        -0.469944         0.155668        -1.061712
 H         0.067909        -1.492837        -0.294565
 H        -0.273579         0.025926         0.734363
 H         1.455041        -0.740487         1.850370
 H         2.028465        -1.999825         0.656013
 H         4.993242         0.531005         0.733913
 H         4.510359         0.093661        -1.813431
 H         4.223995        -1.605857        -1.244607
 H         2.159182         0.344558        -2.425617
 H         3.435054         2.250575        -0.593531
