19
Iteration:    49
 C         0.195766        -0.281851        -0.316255
 C         1.647323        -0.165801        -0.105502
 C         2.286973        -1.251883         0.701980
 O         3.593575        -0.729769         1.129278
 C         4.075512         0.253243         0.167216
 C         3.886529        -0.243096        -1.264813
 C         2.511905         0.353688        -1.329061
 C         2.966246         1.364807        -0.186747
 O         1.765131         1.130636         0.621475
 H        -0.278037         0.056937         0.608901
 H        -0.140854         0.483232        -0.911133
 H        -0.150274        -1.324961        -0.563238
 H         1.683173        -1.477609         1.614523
 H         2.449715        -2.070593         0.094297
 H         5.052095         0.580914         0.584530
 H         4.622467         0.186607        -1.974072
 H         3.910843        -1.419545        -1.288827
 H         1.881229         0.496172        -2.264305
 H         3.349542         2.398134        -0.233387
