19
Iteration:  2359
 C         0.157970        -0.400543        -0.323911
 C         1.628831        -0.026192        -0.102652
 C         2.205260        -0.804805         1.182309
 O         3.571305        -0.400665         1.298378
 C         4.044379         0.185934         0.125921
 C         3.892085        -0.730198        -1.040791
 C         2.549265        -0.105431        -1.325435
 C         3.038515         1.194237        -0.549053
 O         1.864921         1.415215         0.185304
 H        -0.410618        -1.041121         0.368704
 H        -0.292554         0.620038        -0.340727
 H        -0.059854        -0.777204        -1.285560
 H         1.518321        -0.472333         2.012572
 H         2.008120        -1.848882         0.954402
 H         5.108443         0.565367         0.330497
 H         4.505697        -0.543014        -1.841288
 H         3.919331        -1.772828        -0.759740
 H         1.927371        -0.145904        -2.261211
 H         3.567984         2.117109        -0.840750
