19
Iteration:  3281
 C         0.126276        -0.268487        -0.316348
 C         1.594063        -0.095600         0.052213
 C         2.241586        -0.800142         1.141439
 O         3.609280        -0.301221         1.317333
 C         4.122315         0.177864         0.109905
 C         3.910144        -0.823974        -1.027849
 C         2.521508        -0.164749        -1.246066
 C         3.007774         1.183120        -0.668282
 O         1.778924         1.412357         0.110957
 H         0.005695        -1.165330        -0.937475
 H        -0.531332        -0.091362         0.615519
 H        -0.061609         0.617514        -0.990253
 H         1.755468        -0.773990         2.159314
 H         2.318493        -1.911317         1.065533
 H         5.081236         0.651444         0.398282
 H         4.717903        -0.833179        -1.881104
 H         3.805532        -1.859842        -0.715609
 H         1.901511        -0.272803        -2.219276
 H         3.473898         2.057785        -1.215654
