19
Iteration:  3655charge 0 multiplicity 1
 C         0.087968        -0.373947        -0.216060
 C         1.570541        -0.089257         0.003449
 C         2.160281        -0.584645         1.239338
 O         3.518176        -0.178967         1.377160
 C         4.128933         0.222520         0.081787
 C         3.878932        -0.915908        -0.930794
 C         2.607501        -0.234472        -1.231383
 C         3.138148         1.073527        -0.762313
 O         1.855446         1.374730        -0.083377
 H        -0.013279        -1.426250        -0.501694
 H        -0.520330        -0.125610         0.633709
 H        -0.251528         0.388519        -0.926148
 H         1.655169        -0.262061         2.191486
 H         2.043259        -1.630779         1.281069
 H         5.250665         0.532051         0.277581
 H         4.492236        -0.703037        -1.921471
 H         3.762338        -2.012624        -0.660158
 H         2.044195        -0.237835        -2.183107
 H         3.655976         1.866553        -1.433392
