19
Iteration:  1783charge 0 multiplicity 1
 C         0.150380        -0.364174        -0.300694
 C         1.582312        -0.049399        -0.076542
 C         2.264399        -0.895503         1.053956
 O         3.528033        -0.313040         1.369698
 C         4.088195         0.221585         0.146758
 C         3.853699        -0.835946        -1.081682
 C         2.550543        -0.012370        -1.332596
 C         3.082958         1.225218        -0.545606
 O         1.840051         1.372717         0.222708
 H        -0.598568         0.381590         0.079832
 H        -0.069757        -0.420861        -1.404146
 H        -0.157680        -1.354611        -0.037438
 H         1.777521        -0.910028         2.023137
 H         2.218073        -1.986824         0.638507
 H         5.059713         0.569918         0.340691
 H         4.623351        -0.546131        -1.881809
 H         3.837649        -1.928682        -0.804185
 H         2.021929         0.229375        -2.203558
 H         3.492190         2.232265        -0.915044
