19
Iteration:  4168
 C         0.024503        -0.333737        -0.205807
 C         1.540259        -0.051980        -0.126324
 C         2.247797        -0.457524         1.245494
 O         3.532811         0.127567         1.377416
 C         4.135382         0.129664         0.111164
 C         3.861791        -1.142250        -0.751832
 C         2.539616        -0.431687        -1.196936
 C         3.104541         1.089069        -0.832127
 O         1.924923         1.369246        -0.164593
 H        -0.210314        -1.164369        -0.941866
 H        -0.322443        -0.643060         0.797023
 H        -0.489937         0.534424        -0.555429
 H         1.561124        -0.113697         1.990877
 H         2.306754        -1.603715         1.210808
 H         5.250779         0.511006         0.125738
 H         4.632443        -1.294254        -1.569741
 H         3.804200        -2.192370        -0.206554
 H         2.032689        -0.756918        -2.057911
 H         3.629299         1.863493        -1.460260
