19
Iteration:  4244charge 0 multiplicity 1
 C        -0.006336        -0.319223        -0.147043
 C         1.509550        -0.038722        -0.014235
 C         2.158570        -0.399489         1.324000
 O         3.507648        -0.000487         1.406889
 C         4.175412         0.232886         0.124344
 C         3.963165        -1.124579        -0.738269
 C         2.632171        -0.475616        -1.200851
 C         3.116689         1.017382        -0.942052
 O         1.912353         1.391688        -0.335155
 H        -0.634064         0.598111        -0.426484
 H        -0.109393        -1.232354        -0.839778
 H        -0.402502        -0.648875         0.831458
 H         1.581455         0.203715         1.970064
 H         1.979385        -1.497851         1.502661
 H         5.258962         0.589457         0.103245
 H         4.504598        -1.359165        -1.619158
 H         3.831973        -1.942524        -0.094877
 H         2.072365        -0.665271        -2.079304
 H         3.574790         1.686334        -1.709120
