19
Iteration:   197charge 0 multiplicity 1
 C         0.171714        -0.320508        -0.239890
 C         1.597478        -0.144711        -0.158176
 C         2.235979        -1.192793         0.735211
 O         3.556266        -0.829545         1.080277
 C         4.150017         0.204253         0.204576
 C         3.976211        -0.194228        -1.182357
 C         2.546413         0.338050        -1.272133
 C         2.928665         1.348650        -0.228136
 O         1.762401         1.210036         0.532975
 H        -0.156759        -0.180494         0.758559
 H        -0.255023         0.443210        -1.006528
 H        -0.108228        -1.342962        -0.469945
 H         1.601527        -1.359961         1.532874
 H         2.195435        -2.099386         0.137069
 H         5.119408         0.389141         0.625049
 H         4.491055         0.499762        -1.868980
 H         4.339159        -1.124699        -1.514618
 H         2.050760         0.564253        -2.154665
 H         3.306467         2.329396        -0.480106
