19
Iteration:   976
 C         0.146850        -0.409674        -0.194754
 C         1.631947        -0.076596        -0.089694
 C         2.165425        -0.997084         0.964028
 O         3.529270        -0.618032         1.189136
 C         4.093839         0.194239         0.187483
 C         3.967493        -0.500540        -1.237340
 C         2.558586         0.201039        -1.332081
 C         3.053291         1.300006        -0.342225
 O         1.809065         1.321627         0.308676
 H        -0.143285        -0.096354        -1.327595
 H        -0.070955        -1.484948        -0.254623
 H        -0.615551         0.044825         0.529961
 H         1.539950        -0.792818         1.938457
 H         2.030550        -2.109181         0.750648
 H         5.024051         0.493127         0.630549
 H         4.737760        -0.138199        -1.994185
 H         4.174230        -1.652468        -1.165435
 H         2.147987         0.323466        -2.260585
 H         3.316346         2.302448        -0.603833
