19
Iteration:  1671charge 0 multiplicity 1
 C         0.055072        -0.463331        -0.344242
 C         1.599437        -0.092858        -0.105733
 C         2.138081        -0.742166         1.127228
 O         3.558203        -0.313167         1.324276
 C         4.139196         0.153494         0.119736
 C         3.888910        -0.796011        -1.086478
 C         2.616398         0.030005        -1.291107
 C         3.097463         1.183961        -0.537223
 O         1.839925         1.375662         0.214982
 H        -0.392219        -0.903665         0.625027
 H        -0.451743         0.471086        -0.391997
 H         0.026414        -1.173635        -1.207684
 H         1.693406        -0.421419         2.103192
 H         1.993913        -1.885582         1.100624
 H         5.210495         0.506856         0.212956
 H         4.632065        -0.554856        -1.984894
 H         3.851131        -1.858743        -0.770103
 H         2.142412         0.095475        -2.216366
 H         3.473642         2.140200        -1.012590
