19
Iteration:   177
 C         0.086742        -0.288102        -0.282248
 C         1.590134        -0.117918        -0.073353
 C         2.280254        -1.254192         0.645514
 O         3.521665        -0.672624         1.146319
 C         4.014769         0.279070         0.201429
 C         3.998882        -0.299820        -1.312882
 C         2.574680         0.314789        -1.324721
 C         2.987585         1.340719        -0.195645
 O         1.859945         1.140366         0.630813
 H        -0.387554        -0.368757         0.660881
 H        -0.256329         0.486640        -0.876608
 H        -0.074868        -1.239391        -0.890324
 H         1.760686        -1.563146         1.581252
 H         2.445270        -2.203620         0.066811
 H         4.933535         0.652779         0.699582
 H         4.620907         0.229993        -1.939476
 H         4.130196        -1.357887        -1.489737
 H         1.917028         0.512263        -2.180521
 H         3.370826         2.349028        -0.279317
