19
Iteration:  1456
 C         0.121768        -0.373871        -0.181625
 C         1.520384        -0.048047        -0.106867
 C         2.136317        -0.877092         1.038489
 O         3.530550        -0.570995         1.267959
 C         4.127559         0.262195         0.224334
 C         4.070808        -0.665070        -1.086839
 C         2.632597        -0.027030        -1.297270
 C         3.032163         1.234470        -0.546268
 O         1.798800         1.412557         0.144840
 H        -0.389049        -0.561272        -1.233535
 H        -0.346128        -1.131559         0.439019
 H        -0.384706         0.541069         0.154440
 H         1.643496        -0.767763         2.132220
 H         2.010474        -1.900915         0.692834
 H         5.094663         0.714020         0.378676
 H         4.667232        -0.334142        -1.945870
 H         4.129873        -1.733705        -0.890320
 H         2.174089         0.072941        -2.202466
 H         3.395799         2.253981        -0.987208
