19
Iteration:  4535
 C         0.160595        -0.314683        -0.161584
 C         1.563484         0.012170        -0.108446
 C         2.131787        -0.178051         1.284927
 O         3.474077         0.382044         1.369517
 C         4.079475         0.175729         0.085914
 C         3.828852        -1.238507        -0.527678
 C         2.581434        -0.694478        -1.109571
 C         3.146160         0.738532        -0.961887
 O         1.978687         1.328723        -0.411088
 H        -0.050953        -1.394643         0.145176
 H        -0.319208         0.456044         0.437187
 H        -0.253967        -0.299393        -1.215892
 H         1.411746         0.232555         2.014709
 H         2.235013        -1.175425         1.602899
 H         5.084971         0.605757         0.074087
 H         4.518893        -1.503268        -1.347919
 H         3.755575        -1.942696         0.282508
 H         1.825277        -0.967349        -1.945005
 H         3.614549         1.317674        -1.751823
