19
Iteration:  1193charge 0 multiplicity 1
 C         0.056590        -0.393633        -0.217200
 C         1.555337        -0.074422        -0.083572
 C         2.213493        -0.973647         0.963078
 O         3.577297        -0.653208         1.212756
 C         4.113714         0.223344         0.225714
 C         4.055268        -0.576054        -1.158780
 C         2.544641         0.177526        -1.317642
 C         3.016639         1.328056        -0.457095
 O         1.788295         1.347514         0.255165
 H        -0.435881         0.519465         0.255455
 H        -0.104499        -0.494134        -1.208816
 H        -0.174014        -1.231716         0.461981
 H         1.654662        -0.914452         1.922343
 H         2.077062        -2.036570         0.711925
 H         5.091259         0.536515         0.538667
 H         4.861630        -0.241431        -1.856274
 H         4.013767        -1.626081        -1.005065
 H         2.042280         0.232900        -2.455670
 H         3.417971         2.295499        -0.635825
