19
Iteration:  3178charge 0 multiplicity 1
 C         0.030499        -0.280508        -0.209317
 C         1.569729        -0.064864        -0.064012
 C         2.160862        -0.806464         1.123064
 O         3.559826        -0.404841         1.278543
 C         4.168782         0.207537         0.127242
 C         3.988914        -0.766545        -1.115540
 C         2.519386        -0.116702        -1.288891
 C         3.074392         1.215331        -0.597487
 O         1.842146         1.356825         0.141604
 H        -0.479101        -0.416593         0.797407
 H        -0.433238         0.533422        -0.712436
 H        -0.014702        -1.137554        -0.893112
 H         1.831924        -0.447588         2.112840
 H         2.054632        -1.964070         1.087426
 H         5.126159         0.651257         0.534616
 H         4.717412        -0.384009        -1.810784
 H         4.111855        -1.792001        -0.634209
 H         1.975006        -0.333660        -2.169399
 H         3.490599         2.094031        -1.070241
