19
Iteration:  1029charge 0 multiplicity 1
 C         0.122569        -0.239888        -0.430731
 C         1.611777        -0.132836        -0.075658
 C         2.328217        -1.131286         0.949522
 O         3.582713        -0.424827         1.238457
 C         4.130898         0.272092         0.123376
 C         3.834318        -0.602745        -1.169836
 C         2.520193         0.153336        -1.228884
 C         2.985006         1.242812        -0.420684
 O         1.802825         1.229400         0.470101
 H        -0.173851         0.239633        -1.410393
 H        -0.284016        -1.192270        -0.529487
 H        -0.449554         0.345306         0.321540
 H         1.908638        -1.425831         1.855559
 H         2.523038        -2.131536         0.363464
 H         5.102659         0.634242         0.409125
 H         4.646333        -0.247116        -1.945659
 H         3.816443        -1.741504        -0.906949
 H         2.058077         0.367745        -2.165072
 H         3.250390         2.224645        -0.611750
