19
Iteration:  1161
 C         0.078266        -0.289166        -0.314607
 C         1.510299        -0.119315        -0.141679
 C         2.302097        -1.033903         0.898374
 O         3.505675        -0.403265         1.318140
 C         4.092052         0.244878         0.180766
 C         3.948674        -0.598927        -1.225630
 C         2.531320         0.071082        -1.291654
 C         3.035375         1.212764        -0.425406
 O         1.889168         1.246282         0.426757
 H        -0.309494         0.740792        -0.088678
 H        -0.163269        -0.398911        -1.297637
 H        -0.380622        -1.098626         0.268269
 H         1.817711        -1.132009         1.797208
 H         2.524055        -2.027285         0.426210
 H         5.020118         0.722451         0.465103
 H         4.731757        -0.157901        -1.908685
 H         4.240664        -1.667064        -1.143579
 H         1.757805         0.205236        -2.283514
 H         3.427549         2.159046        -0.633473
