19
Iteration:  3461charge 0 multiplicity 1
 C         0.099780        -0.399845        -0.172141
 C         1.550782        -0.012422        -0.120825
 C         2.248537        -0.651127         1.130397
 O         3.544709        -0.246873         1.380602
 C         4.102004         0.209154         0.153085
 C         3.844422        -0.960669        -0.869201
 C         2.560838        -0.197425        -1.309773
 C         3.125984         1.196122        -0.734083
 O         1.886582         1.428811        -0.032710
 H        -0.607116        -0.236036         0.691478
 H        -0.457881         0.294012        -0.890817
 H         0.065052        -1.454254        -0.537801
 H         1.831279        -0.527372         2.150387
 H         2.211247        -1.755507         1.030279
 H         5.131441         0.579862         0.463442
 H         4.399061        -0.968708        -1.776591
 H         3.684249        -1.906858        -0.403729
 H         2.096150        -0.513741        -2.251472
 H         3.325946         2.072555        -1.306354
