19
Iteration:  4114charge 0 multiplicity 1
 C         0.084353        -0.308008        -0.172502
 C         1.562611        -0.031793        -0.045807
 C         2.114695        -0.431154         1.288430
 O         3.507373        -0.032715         1.388134
 C         4.183385         0.147464         0.100973
 C         3.924883        -0.994677        -0.864262
 C         2.593771        -0.431887        -1.223425
 C         3.065716         0.990306        -0.854996
 O         1.880395         1.378120        -0.141353
 H        -0.208700        -1.076650         0.544218
 H        -0.453259         0.592916         0.008444
 H        -0.167306        -0.590178        -1.113919
 H         1.501934         0.111762         2.004677
 H         1.981052        -1.498219         1.441932
 H         5.285874         0.485107         0.251967
 H         4.678149        -0.931205        -1.648986
 H         4.117513        -2.100734        -0.664733
 H         2.193781        -0.741462        -2.159679
 H         3.476208         1.639866        -1.688893
