19
Iteration:   963charge 0 multiplicity 1
 C         0.119875        -0.470301        -0.260402
 C         1.542629        -0.054182        -0.091600
 C         2.178991        -0.884084         0.993109
 O         3.583411        -0.721224         1.197967
 C         4.095318         0.169676         0.171849
 C         4.000517        -0.498834        -1.182967
 C         2.647775         0.167958        -1.367394
 C         3.024949         1.306791        -0.361506
 O         1.739809         1.391780         0.326993
 H        -0.522110         0.057094        -1.102580
 H         0.091689        -1.550749        -0.237032
 H        -0.263718        -0.038005         0.735892
 H         1.687885        -0.728679         1.961240
 H         2.014052        -2.024452         0.649381
 H         5.088458         0.544214         0.418527
 H         4.731850         0.025049        -1.992022
 H         3.894961        -1.677385        -1.244540
 H         2.146303         0.296303        -2.263946
 H         3.599561         2.205510        -0.465123
