19
Iteration:  2208
 C         0.118176        -0.317961        -0.316380
 C         1.523314        -0.026496        -0.026974
 C         2.150761        -0.738397         1.158301
 O         3.611138        -0.535731         1.231413
 C         4.126040         0.221708         0.156146
 C         4.089526        -0.684373        -1.043655
 C         2.530933        -0.147638        -1.257481
 C         3.030456         1.197993        -0.508986
 O         1.786881         1.353763         0.137587
 H        -0.389607         0.492244         0.191019
 H        -0.184116        -0.150671        -1.385344
 H        -0.290565        -1.307612        -0.055381
 H         1.703071        -0.347851         1.998809
 H         1.863683        -1.763376         1.108256
 H         5.144610         0.700201         0.378493
 H         4.556390        -0.361023        -2.099746
 H         4.133296        -1.779840        -0.973228
 H         2.084539        -0.127616        -2.286661
 H         3.147063         2.180240        -1.037569
