19
Iteration:  4951
 C         0.123431        -0.309845        -0.058991
 C         1.583973         0.029276        -0.040898
 C         2.045459         0.185821         1.343038
 O         3.400992         0.591581         1.360758
 C         4.194221         0.160589         0.177388
 C         3.854310        -1.344431        -0.267403
 C         2.514514        -0.834102        -0.949192
 C         3.159681         0.516785        -1.195554
 O         2.050032         1.203611        -0.839515
 H        -0.036857        -1.383319         0.078027
 H        -0.438037         0.176242         0.753437
 H        -0.294106        -0.013780        -0.938040
 H         1.471951         1.008474         1.757484
 H         2.026479        -0.786103         1.958468
 H         5.222631         0.544005         0.235106
 H         4.484910        -1.571974        -1.214873
 H         3.937041        -2.189494         0.513832
 H         2.067809        -1.508216        -1.756231
 H         3.600720         0.864587        -2.189703
