19
Iteration:  1150charge 0 multiplicity 1
 C         0.014046        -0.285591        -0.383827
 C         1.601965        -0.122292        -0.028539
 C         2.333660        -1.047355         0.917242
 O         3.501062        -0.343748         1.332403
 C         4.123978         0.193608         0.115431
 C         3.890558        -0.576502        -1.158347
 C         2.528033         0.116480        -1.364569
 C         3.039376         1.240862        -0.425912
 O         1.912851         1.198533         0.471951
 H        -0.649746         0.595175        -0.214449
 H        -0.043157        -0.519706        -1.398473
 H        -0.581002        -1.095627         0.055146
 H         1.762622        -1.196642         1.749190
 H         2.596617        -2.062275         0.514346
 H         5.096445         0.509801         0.462811
 H         4.531713        -0.208485        -2.022013
 H         3.932165        -1.708123        -1.045787
 H         2.017607         0.297991        -2.516471
 H         3.300730         2.167931        -0.823356
