19
Iteration:  3123charge 0 multiplicity 1
 C         0.128937        -0.343297        -0.327417
 C         1.558323        -0.075921        -0.063140
 C         2.304908        -0.857859         1.053463
 O         3.607690        -0.303627         1.340215
 C         4.082827         0.142506         0.079773
 C         3.747555        -0.819784        -1.025145
 C         2.577193         0.010496        -1.233573
 C         3.044016         1.220522        -0.529788
 O         1.839368         1.385333         0.165161
 H        -0.514897         0.487973         0.021381
 H        -0.129479        -0.345738        -1.360385
 H        -0.236220        -1.334451         0.087862
 H         1.865470        -0.837286         2.053273
 H         2.376336        -1.885683         0.642634
 H         5.140332         0.483827         0.360326
 H         4.510862        -0.761237        -1.821533
 H         3.799329        -1.924630        -0.684112
 H         2.112611         0.101445        -2.193019
 H         3.560433         2.084040        -0.968309
