19
Iteration:   496
 C         0.129803        -0.388165        -0.398107
 C         1.595605        -0.123314        -0.116894
 C         2.234079        -1.068837         0.818308
 O         3.556469        -0.611390         1.204782
 C         4.163943         0.176346         0.186596
 C         3.895636        -0.419628        -1.309480
 C         2.480890         0.284538        -1.283341
 C         3.064924         1.303586        -0.189588
 O         1.801868         1.221074         0.550881
 H        -0.244132         0.021464        -1.403369
 H        -0.048226        -1.409790        -0.290812
 H        -0.428291         0.259135         0.375760
 H         1.654376        -1.049098         1.674285
 H         2.308939        -2.157262         0.335830
 H         5.193833         0.547172         0.410634
 H         4.439328         0.053399        -2.146979
 H         4.108912        -1.539694        -1.426279
 H         1.959271         0.693915        -2.098415
 H         3.505774         2.328180        -0.325996
