19
Iteration:   281
 C         0.088417        -0.394335        -0.477939
 C         1.527912        -0.088953        -0.015832
 C         2.348396        -1.203268         0.695575
 O         3.554953        -0.618288         1.195777
 C         4.130556         0.186843         0.120710
 C         3.871817        -0.381638        -1.320905
 C         2.510096         0.410838        -1.232285
 C         3.068725         1.326771        -0.128119
 O         1.828163         1.177837         0.651119
 H        -0.757438        -0.415267         0.277136
 H        -0.317491         0.609998        -0.983369
 H         0.129134        -1.181000        -1.164422
 H         1.811324        -1.524235         1.686323
 H         2.627463        -2.150155         0.108694
 H         5.113386         0.375563         0.468236
 H         4.613033         0.052860        -2.116778
 H         3.788729        -1.476359        -1.392017
 H         1.837891         0.812370        -2.052964
 H         3.436381         2.346372        -0.384437
