19
Iteration:  2214charge 0 multiplicity 1
 C         0.154441        -0.338529        -0.356600
 C         1.584203        -0.059226        -0.017936
 C         2.168362        -0.732926         1.190909
 O         3.578036        -0.539758         1.269060
 C         4.140989         0.228238         0.150288
 C         4.051903        -0.657053        -1.087221
 C         2.544259        -0.157942        -1.320717
 C         2.994081         1.165149        -0.521224
 O         1.777700         1.408125         0.167383
 H        -0.396286         0.449785         0.233790
 H        -0.021538        -0.029837        -1.376788
 H        -0.257953        -1.295007         0.015932
 H         1.537593        -0.352376         2.146590
 H         1.827455        -1.825270         1.116237
 H         5.137813         0.634977         0.311728
 H         4.432861        -0.458470        -2.012196
 H         4.129580        -1.763349        -0.885153
 H         1.937145         0.016833        -2.221552
 H         3.290258         2.039158        -1.089204
