19
Iteration:  2372
 C         0.158695        -0.359108        -0.319993
 C         1.559641        -0.030541         0.000099
 C         2.210984        -0.812525         1.021954
 O         3.545419        -0.314777         1.371657
 C         4.115720         0.152396         0.142200
 C         3.843687        -0.868717        -1.084342
 C         2.552679        -0.005267        -1.316041
 C         3.102626         1.222380        -0.558388
 O         1.808020         1.396015         0.182631
 H        -0.095856        -1.061901         0.444218
 H        -0.582748         0.382012        -0.321858
 H         0.189029        -0.977327        -1.222617
 H         1.778141        -0.703602         2.044717
 H         2.303339        -1.905584         0.909207
 H         5.181304         0.492847         0.391708
 H         4.674021        -0.636979        -1.798489
 H         3.779650        -1.919106        -0.891841
 H         2.098130        -0.068341        -2.358661
 H         3.450955         2.212060        -1.016202
