19
Iteration:   364charge 0 multiplicity 1
 C         0.116093        -0.404772        -0.416759
 C         1.530438        -0.064132        -0.092342
 C         2.245936        -1.065282         0.838566
 O         3.639250        -0.719725         1.125627
 C         4.093696         0.180057         0.204487
 C         3.918016        -0.379814        -1.315106
 C         2.534140         0.359281        -1.286997
 C         3.015357         1.279473        -0.156992
 O         1.805341         1.229195         0.609863
 H        -0.146691        -1.438719        -0.113593
 H        -0.459580         0.312069        -0.031901
 H        -0.214188        -0.309694        -1.564638
 H         1.807152        -1.352009         1.734284
 H         2.398556        -1.962761         0.231401
 H         5.090141         0.717903         0.521245
 H         4.595506         0.072579        -2.009135
 H         3.935860        -1.495253        -1.563478
 H         2.042539         0.816427        -2.171770
 H         3.356483         2.305971        -0.410242
