19
Iteration:  2178charge 0 multiplicity 1
 C         0.032180        -0.347683        -0.214964
 C         1.542288        -0.111522        -0.101581
 C         2.146830        -0.870948         1.096460
 O         3.527382        -0.383848         1.353316
 C         4.103898         0.237165         0.152566
 C         4.043984        -0.707070        -1.085294
 C         2.565019        -0.041151        -1.369596
 C         3.073435         1.163341        -0.560655
 O         1.897057         1.387820         0.153372
 H        -0.330044         0.449247         0.451821
 H        -0.394771        -0.184385        -1.237234
 H        -0.474047        -1.414838         0.004513
 H         1.625132        -0.565102         2.079200
 H         2.218701        -2.026239         0.897957
 H         5.006838         0.607266         0.562772
 H         4.847098        -0.535634        -1.834114
 H         3.940876        -1.735088        -0.899591
 H         2.301381         0.039611        -2.406486
 H         3.341525         2.125527        -1.057839
