19
Iteration:  2439
 C         0.062743        -0.293331        -0.320164
 C         1.575148        -0.104793        -0.044239
 C         2.212535        -0.832488         1.203328
 O         3.576895        -0.453239         1.262824
 C         4.105404         0.227288         0.107808
 C         3.997332        -0.728345        -1.086687
 C         2.546871        -0.091335        -1.272269
 C         3.029492         1.182386        -0.532381
 O         1.801801         1.429934         0.186400
 H        -0.564089        -0.025632         0.486006
 H        -0.050285         0.331040        -1.172324
 H         0.030912        -1.340290        -0.757801
 H         1.675367        -0.568427         2.124003
 H         2.176474        -1.941741         0.974816
 H         5.079537         0.636617         0.424453
 H         4.674802        -0.432918        -1.966996
 H         4.073827        -1.784793        -1.081033
 H         1.928366        -0.224911        -2.210208
 H         3.523015         2.100509        -0.997675
