19
Iteration:  1601
 C         0.069115        -0.350153        -0.240910
 C         1.554472        -0.088420        -0.102306
 C         2.152943        -0.823739         1.058557
 O         3.557513        -0.372171         1.299458
 C         4.092459         0.234524         0.115706
 C         3.988827        -0.719861        -1.056873
 C         2.612297        -0.091584        -1.297129
 C         3.074235         1.195929        -0.528921
 O         1.824258         1.351036         0.173047
 H        -0.444407         0.079080         0.567668
 H        -0.397843         0.285784        -1.054437
 H        -0.284709        -1.370192        -0.428666
 H         1.615113        -0.631584         2.105766
 H         2.193957        -1.886385         0.927772
 H         5.081542         0.512505         0.455468
 H         4.730721        -0.369017        -1.737083
 H         4.059921        -1.820228        -0.910215
 H         2.241969        -0.111943        -2.237923
 H         3.526212         2.059001        -0.956401
