19
Iteration:  4826
 C         0.025082        -0.243625        -0.090739
 C         1.545309        -0.005068        -0.125626
 C         2.114352         0.086926         1.329297
 O         3.593119         0.457576         1.444126
 C         4.158134         0.158440         0.134360
 C         3.886218        -1.325885        -0.260303
 C         2.621279        -0.882145        -1.088899
 C         3.129731         0.674079        -1.136065
 O         1.865338         1.254288        -0.734909
 H        -0.322689         0.241146        -0.944722
 H        -0.263945        -1.256138        -0.125867
 H        -0.512448         0.352343         0.663288
 H         1.670620         0.878849         1.997012
 H         1.960617        -0.936436         1.818761
 H         5.093392         0.728876         0.145908
 H         4.677149        -1.773622        -0.855019
 H         3.732803        -2.144336         0.503235
 H         2.224178        -1.333687        -1.944657
 H         3.611061         1.007539        -2.108541
