19
Iteration:  4007
 C         0.130760        -0.273751        -0.129201
 C         1.605008        -0.087709        -0.110019
 C         2.095326        -0.512803         1.236595
 O         3.534947        -0.094406         1.362583
 C         4.063867         0.175264         0.124620
 C         3.948098        -0.944413        -0.954644
 C         2.573148        -0.382223        -1.279358
 C         3.058003         1.013652        -0.739415
 O         1.879630         1.351568        -0.084373
 H        -0.279685         0.726120        -0.519334
 H        -0.283087        -1.058313        -0.864559
 H        -0.235975        -0.410213         0.931194
 H         1.569635         0.020703         2.062041
 H         2.105211        -1.631812         1.509770
 H         5.109557         0.621675         0.265483
 H         4.615999        -0.808623        -1.806536
 H         4.104044        -1.940599        -0.503008
 H         2.302503        -0.591228        -2.327896
 H         3.629315         1.795002        -1.319714
