19
Iteration:  1707charge 0 multiplicity 1
 C         0.176551        -0.377721        -0.196057
 C         1.563823        -0.019741        -0.057306
 C         2.108804        -0.801294         1.134763
 O         3.560874        -0.527838         1.308728
 C         4.106461         0.195243         0.173743
 C         3.977214        -0.682582        -1.061134
 C         2.630702        -0.003227        -1.265759
 C         3.034633         1.205270        -0.605349
 O         1.788362         1.410148         0.061679
 H        -0.337688        -0.548359         0.821277
 H        -0.360399         0.337706        -0.866676
 H        -0.079323        -1.248214        -0.732264
 H         1.637455        -0.556485         2.031438
 H         1.865756        -1.906259         0.839443
 H         4.985515         0.582561         0.565173
 H         4.618253        -0.375002        -1.983265
 H         4.226841        -1.756021        -0.889644
 H         2.021944        -0.127238        -2.299985
 H         3.619005         1.979308        -1.215564
