19
Iteration:  1831
 C         0.163119        -0.355860        -0.212457
 C         1.574152        -0.089216        -0.055205
 C         2.107458        -0.733962         1.180919
 O         3.505518        -0.478192         1.277460
 C         4.070866         0.142266         0.176174
 C         4.058104        -0.654283        -1.159971
 C         2.642632        -0.022045        -1.303993
 C         3.054874         1.174934        -0.568208
 O         1.803712         1.365154         0.118107
 H        -0.431008         0.034830         0.567475
 H        -0.398259         0.021812        -1.064710
 H        -0.038605        -1.443066        -0.373436
 H         1.643288        -0.394953         2.019783
 H         2.028403        -1.915949         1.225019
 H         4.997524         0.723925         0.463880
 H         4.720692        -0.395519        -1.927258
 H         3.844676        -1.704374        -0.933176
 H         2.144572        -0.048113        -2.374005
 H         3.451037         2.074391        -0.950823
