19
Iteration:  3539charge 0 multiplicity 1
 C         0.110329        -0.348481        -0.183419
 C         1.580948        -0.069945        -0.028240
 C         2.197351        -0.609013         1.205503
 O         3.528684        -0.254817         1.336799
 C         4.086927         0.258615         0.144396
 C         3.938725        -0.969938        -0.918649
 C         2.628958        -0.300170        -1.261211
 C         3.053579         1.092873        -0.804560
 O         1.849323         1.489606        -0.069553
 H        -0.196216        -1.287716         0.360051
 H        -0.488313         0.621246         0.099724
 H        -0.402709        -0.322556        -1.140399
 H         1.786943        -0.501595         2.228110
 H         2.054135        -1.710452         1.166832
 H         5.031317         0.737486         0.434487
 H         4.683571        -0.961176        -1.679576
 H         3.773194        -1.961050        -0.499084
 H         2.085201        -0.321096        -2.217517
 H         3.429873         1.999181        -1.213604
