19
Iteration:  2101charge 0 multiplicity 1
 C         0.167151        -0.348238        -0.387052
 C         1.669073        -0.158006        -0.061146
 C         2.108505        -0.694684         1.161485
 O         3.588865        -0.432270         1.292708
 C         4.100252         0.187223         0.112738
 C         3.987818        -0.766088        -1.061594
 C         2.526929        -0.060083        -1.264495
 C         3.006550         1.161325        -0.555821
 O         1.803589         1.418174         0.207647
 H        -0.428765        -0.738083         0.426442
 H        -0.273448         0.580407        -0.802697
 H        -0.077508        -1.242769        -1.091313
 H         1.748438        -0.127361         2.051409
 H         2.061035        -1.824543         1.359590
 H         5.021006         0.535484         0.462035
 H         4.448717        -0.430610        -1.979435
 H         4.093017        -1.790037        -0.970962
 H         1.898790        -0.007996        -2.114100
 H         3.400305         2.100804        -1.003311
