19
Iteration:   675charge 0 multiplicity 1
 C         0.105611        -0.407828        -0.431233
 C         1.568845        -0.100093        -0.065144
 C         2.215992        -1.004669         0.985842
 O         3.581455        -0.575422         1.216146
 C         4.097810         0.185996         0.155626
 C         3.906158        -0.506403        -1.252432
 C         2.533549         0.215830        -1.315505
 C         3.031950         1.300363        -0.315794
 O         1.846232         1.283406         0.457242
 H        -0.228966        -1.417401        -0.238987
 H        -0.633824         0.246058         0.204800
 H         0.043746        -0.167766        -1.451065
 H         1.609383        -0.987156         1.863888
 H         2.304798        -2.065015         0.761563
 H         5.156116         0.387290         0.364039
 H         4.674789        -0.071990        -1.939968
 H         3.912435        -1.542087        -1.140263
 H         2.118697         0.529150        -2.263433
 H         3.642590         2.245135        -0.391809
