19
Iteration:  4443
 C         0.065543        -0.282445        -0.222062
 C         1.586454        -0.097943        -0.044369
 C         2.183653        -0.285573         1.417481
 O         3.486269         0.318743         1.389376
 C         4.107645         0.225458         0.089646
 C         3.891209        -1.254257        -0.667885
 C         2.542223        -0.575740        -1.103118
 C         3.125868         0.787657        -0.931216
 O         1.959774         1.379902        -0.413694
 H        -0.578444         0.580001        -0.520052
 H        -0.027673        -1.062187        -1.122265
 H        -0.401458        -0.767078         0.735949
 H         1.576495         0.293872         2.034191
 H         1.933970        -1.313443         1.734497
 H         5.105682         0.722768         0.195574
 H         4.435347        -1.362783        -1.538181
 H         3.969982        -2.163736        -0.056742
 H         2.167051        -0.868636        -2.046956
 H         3.618846         1.266926        -1.832489
