19
Iteration:   147charge 0 multiplicity 1
 C         0.060406        -0.322437        -0.481862
 C         1.557094        -0.077034        -0.126581
 C         2.362620        -1.169610         0.679202
 O         3.656640        -0.583317         1.171119
 C         4.151072         0.227088         0.180623
 C         3.774122        -0.403266        -1.298684
 C         2.544078         0.349771        -1.202934
 C         3.044334         1.352590        -0.124762
 O         1.784586         1.080098         0.677380
 H        -0.440111        -0.727349         0.453373
 H        -0.301044         0.598628        -0.803091
 H        -0.098224        -1.158807        -1.306366
 H         1.767887        -1.344721         1.672281
 H         2.491674        -2.123107         0.114622
 H         5.228461         0.460236         0.475888
 H         4.422765        -0.034790        -2.122584
 H         3.752442        -1.535750        -1.528039
 H         1.851783         0.689947        -2.068165
 H         3.306293         2.420533        -0.273905
