19
Iteration:  4188
 C         0.149859        -0.380149        -0.213850
 C         1.576102        -0.056473         0.022854
 C         2.141932        -0.443464         1.363734
 O         3.469332         0.145583         1.366934
 C         4.122305         0.170556         0.092547
 C         3.818022        -1.082094        -0.789227
 C         2.562797        -0.394514        -1.319726
 C         3.145535         0.910103        -0.915089
 O         1.932211         1.389350        -0.129354
 H         0.020509        -0.752884        -1.318599
 H        -0.374678        -1.084956         0.465776
 H        -0.339077         0.659337        -0.149681
 H         1.646292         0.034993         2.196997
 H         2.178028        -1.592407         1.553046
 H         5.178170         0.509864         0.081344
 H         4.478718        -1.412414        -1.545633
 H         3.828803        -2.060821        -0.374181
 H         2.155215        -0.446846        -2.303012
 H         3.567867         1.606129        -1.637876
