19
Iteration:  4866charge 0 multiplicity 1
 C         0.141665        -0.260685        -0.096912
 C         1.605714         0.029660        -0.057437
 C         2.053988         0.054156         1.339752
 O         3.408569         0.566517         1.322561
 C         4.130645         0.160423         0.124209
 C         3.890337        -1.335317        -0.303859
 C         2.583778        -0.836167        -0.956249
 C         3.152321         0.497166        -1.225400
 O         1.984776         1.302355        -0.661526
 H        -0.337098         0.791593        -0.045106
 H        -0.154089        -0.721140        -1.130494
 H        -0.134109        -0.886828         0.823289
 H         1.419690         0.647965         2.034282
 H         1.982005        -0.954351         1.751428
 H         5.149391         0.569601         0.137406
 H         4.567018        -1.641122        -1.140403
 H         3.858010        -2.093312         0.446497
 H         2.084893        -1.601019        -1.625561
 H         3.535044         0.989829        -2.076882
