19
Iteration:  1296charge 0 multiplicity 1
 C         0.007796        -0.325088        -0.254806
 C         1.601501        -0.099947        -0.085587
 C         2.229278        -1.017009         0.942913
 O         3.498031        -0.442075         1.240888
 C         4.136198         0.275790         0.203814
 C         3.981764        -0.653605        -1.125525
 C         2.581793         0.046087        -1.317610
 C         3.040703         1.212909        -0.471054
 O         1.847346         1.343607         0.317041
 H        -0.457999        -0.911312         0.435723
 H        -0.429614         0.686471        -0.269911
 H        -0.107567        -0.592777        -1.251842
 H         1.831378        -1.012306         1.864237
 H         2.374843        -2.086352         0.624972
 H         5.056741         0.800652         0.552384
 H         4.732680        -0.379848        -1.870370
 H         4.051129        -1.761211        -0.848049
 H         1.987469         0.091472        -2.374993
 H         3.447793         2.157389        -0.819112
