19
Iteration:  2181charge 0 multiplicity 1
 C        -0.010467        -0.348057        -0.227627
 C         1.554426        -0.124633        -0.087355
 C         2.165789        -0.866467         1.118152
 O         3.523576        -0.408950         1.326373
 C         4.111075         0.248273         0.160153
 C         4.056476        -0.678281        -1.071080
 C         2.596299        -0.060560        -1.378738
 C         3.082879         1.158110        -0.556088
 O         1.879784         1.404695         0.157870
 H        -0.362075         0.472441         0.410919
 H        -0.439287        -0.217898        -1.204115
 H        -0.463345        -1.343797        -0.026153
 H         1.570122        -0.527707         2.105152
 H         2.170971        -1.990542         0.947624
 H         5.099715         0.618317         0.474472
 H         4.701513        -0.557990        -1.897144
 H         3.955586        -1.770672        -0.860341
 H         2.239493         0.082917        -2.427059
 H         3.362557         2.051342        -1.088460
