19
Iteration:  1896charge 0 multiplicity 1
 C         0.125837        -0.349376        -0.361336
 C         1.659307        -0.080883        -0.095332
 C         2.252092        -0.879286         1.028186
 O         3.492232        -0.189404         1.361665
 C         4.062794         0.164522         0.118968
 C         3.817633        -0.826663        -1.006524
 C         2.531583        -0.035076        -1.283671
 C         3.015675         1.248146        -0.602262
 O         1.914677         1.321649         0.291810
 H        -0.313010        -0.623875         0.558195
 H        -0.221720         0.528590        -0.915161
 H         0.252540        -1.147443        -1.149778
 H         1.745080        -0.792738         1.896051
 H         2.481114        -2.031093         0.798612
 H         5.095772         0.503731         0.342535
 H         4.576033        -0.735162        -1.775448
 H         3.640782        -1.972873        -0.789450
 H         2.044905        -0.129403        -2.319518
 H         3.568409         2.086677        -0.998124
