19
Iteration:  2752charge 0 multiplicity 1
 C         0.197923        -0.357560        -0.179962
 C         1.601471        -0.066577        -0.108344
 C         2.213720        -0.859826         1.015876
 O         3.442307        -0.254559         1.364432
 C         4.046047         0.139329         0.161359
 C         3.842725        -0.772467        -1.138122
 C         2.533711         0.033337        -1.348844
 C         3.121950         1.208161        -0.511568
 O         1.911278         1.314489         0.186244
 H        -0.429295         0.325925        -0.742378
 H         0.132680        -1.330540        -0.781627
 H        -0.339417        -0.726768         0.771192
 H         1.585029        -1.074904         1.898803
 H         2.539391        -1.864404         0.659302
 H         5.091603         0.493436         0.485242
 H         4.570685        -0.435349        -1.925061
 H         3.786467        -1.978033        -1.071963
 H         2.111798         0.242499        -2.324447
 H         3.563674         2.193231        -0.790035
