19
Iteration:   953charge 0 multiplicity 1
 C         0.076297        -0.470292        -0.298559
 C         1.576348         0.008546        -0.135579
 C         2.220425        -0.853438         1.008897
 O         3.651144        -0.736857         1.193443
 C         4.077867         0.139411         0.198547
 C         3.986507        -0.531404        -1.183089
 C         2.588944         0.220564        -1.313866
 C         3.044342         1.270432        -0.353069
 O         1.721643         1.400352         0.320658
 H        -0.791639         0.002788        -0.992258
 H         0.014747        -1.543768        -0.503817
 H        -0.342087        -0.396121         0.791579
 H         1.673386        -0.691087         2.008599
 H         1.998313        -1.951083         0.757231
 H         5.046447         0.492048         0.514009
 H         4.768642        -0.089106        -1.942104
 H         4.117017        -1.713615        -1.240567
 H         2.350349         0.369954        -2.247953
 H         3.315554         2.183350        -0.776991
