19
Iteration:  3232charge 0 multiplicity 1
 C         0.107505        -0.447920        -0.231997
 C         1.573808        -0.038904        -0.081267
 C         2.158288        -0.758371         1.141306
 O         3.475155        -0.258294         1.351255
 C         4.156837         0.170352         0.063594
 C         3.805305        -0.870655        -1.099226
 C         2.604708        -0.008465        -1.339426
 C         3.121508         1.219990        -0.598851
 O         1.922113         1.362085         0.204559
 H        -0.078676        -1.305888         0.419112
 H        -0.373920         0.432704         0.056979
 H        -0.234838        -0.707967        -1.223660
 H         1.640935        -0.684510         2.094600
 H         2.081170        -1.887489         1.003801
 H         5.180219         0.513716         0.328737
 H         4.602140        -0.690571        -1.804457
 H         3.761221        -1.973740        -0.855069
 H         2.296966         0.036884        -2.352267
 H         3.396564         2.111290        -1.138196
