19
Iteration:  1591charge 0 multiplicity 1
 C         0.054232        -0.330486        -0.199663
 C         1.542070        -0.173895        -0.179267
 C         2.157521        -0.804141         1.108823
 O         3.509444        -0.418214         1.294208
 C         4.109416         0.213545         0.230362
 C         4.035756        -0.718671        -1.108028
 C         2.604303        -0.016809        -1.358009
 C         3.037122         1.189783        -0.567832
 O         1.853030         1.389688         0.187306
 H        -0.258620         0.159489         0.661124
 H        -0.246550         0.014204        -1.257263
 H        -0.090598        -1.447542        -0.046811
 H         1.565676        -0.433530         2.113414
 H         2.072405        -1.891071         0.987562
 H         5.111460         0.637671         0.475279
 H         4.694843        -0.365810        -1.926148
 H         4.226088        -1.802829        -0.853676
 H         2.161878        -0.040194        -2.221804
 H         3.438998         2.002585        -1.083682
