19
Iteration:  4964charge 0 multiplicity 1
 C         0.046582        -0.289873        -0.067003
 C         1.556136        -0.029829        -0.089659
 C         2.124672         0.182441         1.345441
 O         3.475414         0.620878         1.299561
 C         4.100186         0.089145         0.186480
 C         3.891796        -1.305144        -0.209918
 C         2.590354        -0.879119        -0.920333
 C         3.199710         0.472606        -1.162733
 O         1.936182         1.291666        -0.859400
 H        -0.085998        -1.305737        -0.471917
 H        -0.288719        -0.111070         0.994671
 H        -0.486114         0.434997        -0.713139
 H         1.569189         0.943830         1.933226
 H         1.886723        -0.769283         1.892075
 H         5.137783         0.373341         0.381455
 H         4.701095        -1.504468        -1.036137
 H         3.977080        -2.210695         0.414736
 H         2.055520        -1.369239        -1.800949
 H         3.798498         0.748661        -1.989929
