19
Iteration:  2000charge 0 multiplicity 1
 C         0.117845        -0.329100        -0.367419
 C         1.558328        -0.085449        -0.086417
 C         2.225065        -0.853792         1.029652
 O         3.527922        -0.236380         1.363932
 C         4.133587         0.212723         0.140953
 C         3.879528        -0.800725        -1.127934
 C         2.522178        -0.064972        -1.272513
 C         3.095828         1.160403        -0.490318
 O         1.854882         1.308958         0.241621
 H        -0.502888         0.449696         0.167634
 H        -0.144655        -0.098478        -1.443712
 H        -0.162714        -1.314161        -0.049316
 H         1.779669        -0.894363         2.094877
 H         2.402301        -1.976342         0.951298
 H         5.158627         0.606720         0.357154
 H         4.699036        -0.502217        -1.825461
 H         3.868217        -1.808022        -0.989831
 H         1.967901         0.055065        -2.231283
 H         3.383434         2.143014        -0.956121
