19
Iteration:   900charge 0 multiplicity 1
 C         0.141944        -0.299637        -0.472049
 C         1.583796        -0.135589        -0.020467
 C         2.292383        -1.012402         0.920833
 O         3.552498        -0.369144         1.333845
 C         4.099468         0.213608         0.119606
 C         3.868380        -0.620322        -1.181257
 C         2.462714         0.139134        -1.328851
 C         2.995736         1.215426        -0.431229
 O         1.913118         1.236653         0.526081
 H        -0.231196         0.768741        -0.832502
 H         0.116558        -0.999882        -1.287639
 H        -0.547721        -0.851768         0.220534
 H         1.574510        -0.908171         1.866084
 H         2.445045        -1.967695         0.515654
 H         5.109595         0.501492         0.356516
 H         4.544038        -0.390828        -1.903158
 H         3.878578        -1.735075        -1.240396
 H         2.032968         0.174544        -2.419664
 H         3.259931         2.213029        -0.623347
