19
Iteration:  2679charge 0 multiplicity 1
 C         0.137401        -0.330439        -0.403686
 C         1.605330        -0.104262        -0.036273
 C         2.191278        -0.838514         1.118115
 O         3.619934        -0.499115         1.385134
 C         4.136796         0.221102         0.145714
 C         3.910012        -0.663032        -1.186858
 C         2.536647        -0.003162        -1.305525
 C         2.919706         1.177463        -0.555519
 O         1.880468         1.378279         0.264380
 H        -0.060861        -0.509220        -1.423331
 H        -0.347129        -1.105987         0.103389
 H        -0.483833         0.500558        -0.001832
 H         1.760013        -0.635037         2.119091
 H         1.994267        -1.925020         1.050104
 H         5.159329         0.630633         0.462430
 H         4.566884        -0.258976        -1.934919
 H         4.030361        -1.700856        -1.205816
 H         1.822201        -0.041322        -2.218719
 H         3.275326         2.153907        -0.976724
