19
Iteration:  4607
 C         0.109096        -0.286098        -0.139839
 C         1.575637        -0.055851        -0.081467
 C         2.078642        -0.093357         1.396889
 O         3.445525         0.371804         1.407094
 C         4.120928         0.149258         0.098151
 C         3.920180        -1.268943        -0.522798
 C         2.593215        -0.701895        -1.080447
 C         3.103095         0.772046        -1.078422
 O         1.993089         1.331504        -0.563584
 H        -0.376755         0.000274        -1.011822
 H        -0.046722        -1.360350         0.089136
 H        -0.425707         0.103487         0.746746
 H         1.532102         0.594701         2.026279
 H         1.922831        -1.064346         1.996806
 H         5.132094         0.491696         0.124121
 H         4.634965        -1.532730        -1.334006
 H         3.742220        -2.031654         0.330167
 H         2.225426        -1.143678        -1.934187
 H         3.598744         1.218067        -1.990310
