19
Iteration:   889
 C         0.080146        -0.312764        -0.478995
 C         1.569375        -0.113313        -0.104053
 C         2.331352        -1.028368         0.951022
 O         3.540975        -0.352575         1.295727
 C         4.113803         0.217958         0.113039
 C         3.803460        -0.597951        -1.167822
 C         2.528332         0.091458        -1.271334
 C         3.051931         1.260586        -0.350916
 O         1.905731         1.201178         0.465899
 H        -0.281405         0.758784        -0.796939
 H        -0.032363        -0.923767        -1.349125
 H        -0.563979        -0.514662         0.405960
 H         1.804234        -1.435909         1.923508
 H         2.547447        -1.924581         0.450675
 H         5.082570         0.605938         0.385019
 H         4.444995        -0.328330        -1.898572
 H         3.796872        -1.662914        -0.917905
 H         1.897753         0.143815        -2.246629
 H         3.381476         2.178922        -0.748734
