19
Iteration:  4802
 C         0.172162        -0.317890        -0.160176
 C         1.608469        -0.028270        -0.021651
 C         2.150818         0.049512         1.389003
 O         3.452509         0.480414         1.322055
 C         4.107254         0.121046         0.091010
 C         3.787341        -1.256998        -0.358961
 C         2.550650        -0.760266        -0.989910
 C         3.180188         0.591680        -1.097416
 O         1.952670         1.297303        -0.689932
 H        -0.108417        -0.633784        -1.156311
 H        -0.076160        -1.178073         0.516718
 H        -0.487436         0.565378         0.003614
 H         1.669662         0.939551         1.943928
 H         1.964498        -0.895052         2.027466
 H         5.013069         0.675496         0.213659
 H         4.467749        -1.757617        -1.018467
 H         3.627057        -1.963415         0.389648
 H         1.950195        -1.268461        -1.720447
 H         3.781353         0.996719        -1.897624
