19
Iteration:  1143
 C         0.004845        -0.303186        -0.415766
 C         1.590833        -0.123310        -0.038694
 C         2.319628        -1.062888         0.960242
 O         3.532204        -0.340481         1.301277
 C         4.117633         0.214154         0.121348
 C         3.861084        -0.598937        -1.149438
 C         2.530152         0.131519        -1.340063
 C         3.030467         1.267343        -0.425046
 O         1.909355         1.207237         0.472673
 H        -0.497488         0.625074        -0.200544
 H         0.079214        -0.522169        -1.588277
 H        -0.366163        -1.132679         0.191689
 H         1.626666        -1.296704         1.853193
 H         2.527929        -2.063056         0.469198
 H         5.209166         0.418592         0.306592
 H         4.583940        -0.321014        -1.952506
 H         3.781875        -1.769297        -1.218780
 H         2.217087         0.266192        -2.326943
 H         3.280174         2.319724        -0.779891
