19
Iteration:  4180
 C         0.076864        -0.344629        -0.233045
 C         1.586613        -0.059188        -0.019185
 C         2.199030        -0.463019         1.307948
 O         3.477118         0.160099         1.315120
 C         4.078974         0.168311         0.051284
 C         3.820639        -1.130896        -0.776066
 C         2.593207        -0.381834        -1.257149
 C         3.160020         0.911772        -0.817898
 O         1.930256         1.391476        -0.142733
 H        -0.073124        -0.985420        -1.112962
 H        -0.340430        -0.916560         0.626051
 H        -0.486346         0.519742        -0.278573
 H         1.742587        -0.008344         2.198845
 H         2.288714        -1.564325         1.575856
 H         5.163222         0.527114         0.326744
 H         4.603321        -1.182542        -1.607808
 H         3.701870        -2.161380        -0.194959
 H         2.161767        -0.524414        -2.222761
 H         3.500078         1.771404        -1.481944
