19
Iteration:  2715
 C         0.040319        -0.312282        -0.297214
 C         1.502052        -0.097387        -0.003245
 C         2.167568        -0.800264         1.147813
 O         3.602632        -0.527437         1.217901
 C         4.153194         0.289374         0.149619
 C         4.022974        -0.711185        -1.148619
 C         2.597991         0.004393        -1.274362
 C         3.008393         1.189226        -0.485708
 O         1.821585         1.340714         0.184605
 H        -0.232084         0.025266        -1.368264
 H         0.017856        -1.461521        -0.190213
 H        -0.529131         0.295865         0.365797
 H         1.682382        -0.533006         2.064181
 H         2.067899        -1.816831         0.869823
 H         5.053233         0.690439         0.466217
 H         4.632549        -0.634603        -2.093458
 H         4.127156        -1.759684        -0.845089
 H         2.000611         0.044249        -2.197542
 H         3.446161         2.080341        -0.898517
