19
Iteration:  1880charge 0 multiplicity 1
 C         0.153322        -0.336412        -0.441008
 C         1.595112        -0.071365         0.033562
 C         2.255015        -0.884466         1.091987
 O         3.493817        -0.217838         1.332493
 C         4.150563         0.258480         0.108611
 C         3.853696        -0.893811        -1.054356
 C         2.557068        -0.052750        -1.351734
 C         3.050609         1.199132        -0.558930
 O         1.868571         1.348128         0.290792
 H        -0.626220        -0.449406         0.410742
 H        -0.417979         0.560621        -0.777643
 H        -0.072638        -1.127617        -1.122895
 H         1.589189        -1.071304         2.107913
 H         2.437261        -1.836705         0.760101
 H         5.226395         0.422039         0.326467
 H         4.593340        -0.803227        -1.921160
 H         3.821401        -1.862402        -0.605650
 H         2.088738        -0.053272        -2.291221
 H         3.144173         2.207729        -1.118242
