19
Iteration:  3757charge 0 multiplicity 1
 C         0.039811        -0.329753        -0.287563
 C         1.556443        -0.149686        -0.092365
 C         2.132665        -0.577236         1.296267
 O         3.551630        -0.143302         1.331908
 C         4.131273         0.156069         0.056205
 C         3.890776        -0.917511        -0.991320
 C         2.598207        -0.249735        -1.278105
 C         3.119627         1.097676        -0.689743
 O         1.879724         1.362314         0.091069
 H        -0.411134        -0.968114         0.456988
 H        -0.281844         0.745354        -0.186213
 H        -0.275370        -0.768899        -1.212320
 H         1.690273         0.014827         2.114071
 H         2.242008        -1.582101         1.491059
 H         5.140215         0.552666         0.226497
 H         4.678319        -0.778561        -1.873794
 H         4.034286        -1.978055        -0.633550
 H         2.218172        -0.323099        -2.289109
 H         3.400704         1.916085        -1.353032
