19
Iteration:  2984
 C         0.066053        -0.434384        -0.232119
 C         1.546173        -0.107357        -0.105232
 C         2.173269        -0.811285         1.109269
 O         3.543705        -0.358479         1.371527
 C         4.158022         0.127968         0.165436
 C         3.864285        -0.696735        -1.188159
 C         2.580787         0.003607        -1.351653
 C         3.080833         1.199171        -0.498901
 O         1.895313         1.408055         0.165001
 H        -0.465951         0.516617        -0.567751
 H        -0.095076        -1.244456        -0.943414
 H        -0.256237        -0.833338         0.744879
 H         1.607677        -0.457437         2.019574
 H         2.153323        -1.992272         0.949596
 H         5.187672         0.409859         0.300080
 H         4.659859        -0.402259        -1.913608
 H         3.857898        -1.800116        -1.148304
 H         1.996928         0.310349        -2.238528
 H         3.660498         2.019825        -0.897184
