19
Iteration:  2557charge 0 multiplicity 1
 C         0.127575        -0.332350        -0.374210
 C         1.619359        -0.145710        -0.087428
 C         2.194028        -0.844898         1.181421
 O         3.572660        -0.512689         1.282850
 C         4.110942         0.226536         0.109991
 C         3.911596        -0.683725        -1.142955
 C         2.545515        -0.000154        -1.307078
 C         3.018293         1.241239        -0.550456
 O         1.863502         1.378041         0.335297
 H        -0.186987        -0.002109        -1.359206
 H        -0.248208        -1.361036        -0.348043
 H        -0.541537         0.192122         0.421587
 H         1.515504        -0.374618         1.975683
 H         2.038636        -1.893197         1.141853
 H         5.157441         0.716671         0.396184
 H         4.617748        -0.461514        -1.900549
 H         3.946702        -1.771054        -1.148422
 H         1.990815         0.050370        -2.328549
 H         3.372038         2.211042        -1.014322
