19
Iteration:   797charge 0 multiplicity 1
 C         0.144393        -0.358914        -0.413510
 C         1.597601        -0.096902        -0.124843
 C         2.233412        -0.996234         0.948086
 O         3.632920        -0.552133         1.262371
 C         4.061500         0.174970         0.170844
 C         3.889772        -0.537911        -1.174147
 C         2.529185         0.163022        -1.295212
 C         3.032643         1.269383        -0.319305
 O         1.801625         1.314039         0.416031
 H        -0.001927        -0.412073        -1.484301
 H        -0.001541        -1.459571         0.075210
 H        -0.621081         0.390731        -0.009958
 H         1.652881        -0.756053         1.859134
 H         2.190316        -2.043613         0.682457
 H         5.160497         0.478747         0.269279
 H         4.543491        -0.112411        -2.017112
 H         3.768542        -1.636361        -1.164252
 H         2.041842         0.370341        -2.233450
 H         3.417154         2.264407        -0.651891
