19
Iteration:  2905
 C         0.103321        -0.324777        -0.299970
 C         1.593974        -0.166152        -0.091521
 C         2.227564        -0.859186         1.079964
 O         3.521374        -0.235258         1.317566
 C         4.106918         0.106848         0.123610
 C         3.909541        -0.722095        -1.150130
 C         2.521617        -0.019066        -1.357161
 C         3.047756         1.222675        -0.485740
 O         1.874649         1.315502         0.335956
 H        -0.121264        -0.339567        -1.365818
 H        -0.381426        -1.235898         0.079461
 H        -0.373568         0.690526         0.004068
 H         1.675505        -0.859561         2.037026
 H         2.418697        -2.020519         0.807148
 H         5.142262         0.533033         0.349642
 H         4.598326        -0.432963        -1.940148
 H         3.972031        -1.828306        -1.412505
 H         1.932662         0.012457        -2.247924
 H         3.634100         2.030040        -0.914305
