19
Iteration:  3196
 C         0.059981        -0.376347        -0.184415
 C         1.513254        -0.013588        -0.005044
 C         2.218456        -0.800450         1.165782
 O         3.633029        -0.518296         1.345148
 C         4.080577         0.210108         0.124360
 C         3.927124        -0.764852        -1.014303
 C         2.646925        -0.091877        -1.359649
 C         3.056907         1.168889        -0.606171
 O         1.809925         1.499003         0.022888
 H        -0.431942        -0.623654         0.738829
 H        -0.529321         0.556714        -0.249728
 H        -0.257785        -1.037559        -1.067576
 H         1.620675        -0.622447         2.072435
 H         2.283398        -1.813561         0.758090
 H         5.033463         0.684861         0.536110
 H         4.572193        -0.510206        -1.917365
 H         3.869700        -1.831548        -0.919657
 H         2.213918         0.173434        -2.382005
 H         3.467040         2.037435        -1.233669
