19
Iteration:   343
 C         0.059877        -0.371415        -0.291888
 C         1.557265        -0.082602        -0.110902
 C         2.204679        -1.157407         0.786990
 O         3.571316        -0.776303         1.091204
 C         4.137636         0.186066         0.209368
 C         4.012191        -0.235589        -1.276572
 C         2.574131         0.291912        -1.248387
 C         3.021072         1.285917        -0.203132
 O         1.788097         1.269227         0.532455
 H        -0.167405        -1.320657         0.279657
 H        -0.514869         0.404346        -0.000822
 H        -0.194018        -0.489085        -1.454840
 H         1.723486        -1.117753         1.767821
 H         2.083552        -2.134403         0.409816
 H         5.258872         0.439457         0.310821
 H         4.504543         0.463729        -1.857411
 H         4.385238        -1.261313        -1.512761
 H         2.066556         0.439301        -2.274075
 H         3.263271         2.361683        -0.350731
