19
Iteration:  2130
 C         0.031523        -0.412429        -0.351846
 C         1.609943        -0.071560        -0.035616
 C         2.225404        -0.864533         1.065802
 O         3.538834        -0.259166         1.384453
 C         4.076887         0.209328         0.124790
 C         3.869085        -0.844514        -1.008572
 C         2.574279         0.030737        -1.325648
 C         3.107824         1.222252        -0.594696
 O         1.906204         1.360895         0.219000
 H        -0.700591        -0.475722         0.513606
 H        -0.443244         0.181250        -1.189094
 H         0.012733        -1.357959        -0.856788
 H         1.721370        -0.803486         1.952182
 H         2.423033        -1.894317         0.707930
 H         5.181338         0.585489         0.329517
 H         4.558104        -0.782317        -1.930719
 H         3.735809        -1.968084        -0.766867
 H         1.913444         0.158681        -2.247703
 H         3.504928         2.194863        -0.977966
