19
Iteration:  2239
 C         0.118363        -0.412162        -0.384292
 C         1.582482        -0.056370        -0.039392
 C         2.186872        -0.824405         1.196451
 O         3.559720        -0.366289         1.342396
 C         4.036786         0.153450         0.155840
 C         3.905956        -0.749489        -1.085710
 C         2.550283        -0.032701        -1.319993
 C         3.084672         1.258674        -0.563933
 O         1.911700         1.349624         0.179678
 H        -0.545487        -0.020965         0.383872
 H        -0.077340         0.106869        -1.326480
 H        -0.025394        -1.410873        -0.320434
 H         1.605728        -0.400532         2.073179
 H         2.087264        -1.898549         1.202193
 H         5.112894         0.549848         0.258992
 H         4.520655        -0.366429        -1.947091
 H         3.840113        -1.859025        -1.226699
 H         1.939847        -0.019036        -2.282885
 H         3.381753         2.229477        -0.998780
