19
Iteration:  2923
 C         0.052365        -0.295850        -0.352209
 C         1.561407        -0.040830         0.033191
 C         2.182724        -0.866556         1.153239
 O         3.557544        -0.451349         1.319899
 C         4.143447         0.244373         0.069325
 C         3.942513        -0.680416        -1.195237
 C         2.575722        -0.042962        -1.273822
 C         3.050413         1.212260        -0.591248
 O         1.859055         1.283770         0.273439
 H        -0.195286        -0.322419        -1.408821
 H        -0.222264        -1.334804        -0.008459
 H        -0.631980         0.409367         0.049910
 H         1.759226        -0.631341         2.138601
 H         2.118724        -1.984942         1.178639
 H         5.169654         0.542253         0.315219
 H         4.591244        -0.214275        -1.984515
 H         4.127125        -1.710820        -0.888827
 H         2.144889         0.033293        -2.300550
 H         3.334379         2.219932        -1.027441
