19
Iteration:  4417charge 0 multiplicity 1
 C         0.084513        -0.284099        -0.190928
 C         1.581252        -0.006636        -0.077813
 C         2.219289        -0.316133         1.344786
 O         3.520760         0.295182         1.397153
 C         4.129565         0.168895         0.107697
 C         3.837623        -1.211136        -0.510184
 C         2.535237        -0.578584        -1.220190
 C         3.113684         0.885889        -1.041208
 O         1.909547         1.306168        -0.345285
 H        -0.345006         0.122374        -1.124618
 H        -0.006207        -1.329214        -0.362576
 H        -0.504888         0.088673         0.586753
 H         1.512628         0.083282         2.147947
 H         2.029444        -1.402001         1.415522
 H         5.215183         0.440873         0.210665
 H         4.600861        -1.329635        -1.398807
 H         3.917340        -2.053923         0.198558
 H         2.167890        -1.107408        -2.113191
 H         3.479407         1.676457        -1.680874
