19
Iteration:   993
 C         0.094222        -0.337614        -0.364642
 C         1.543399        -0.115993        -0.111952
 C         2.241463        -1.049953         0.937940
 O         3.520719        -0.490065         1.269642
 C         4.105038         0.225247         0.132941
 C         3.915343        -0.517486        -1.182314
 C         2.577248         0.136908        -1.293377
 C         3.043131         1.268568        -0.428042
 O         1.866167         1.241838         0.466199
 H        -0.242636        -0.067853        -1.293592
 H        -0.188520        -1.336932        -0.028066
 H        -0.324974         0.289910         0.394223
 H         1.716391        -1.082818         1.845266
 H         2.378567        -2.043679         0.503330
 H         5.115446         0.565757         0.460758
 H         4.601481        -0.102705        -1.951207
 H         4.025237        -1.564791        -1.314239
 H         1.939353         0.437188        -2.225906
 H         3.512935         2.243107        -0.769414
