19
Iteration:  1749charge 0 multiplicity 1
 C         0.087291        -0.271744        -0.376037
 C         1.594751        -0.116183        -0.098953
 C         2.241362        -0.846240         1.043415
 O         3.533344        -0.259965         1.383857
 C         4.126325         0.236546         0.142840
 C         3.898454        -0.815920        -1.053853
 C         2.483343        -0.034538        -1.322341
 C         3.056683         1.189209        -0.612492
 O         1.882498         1.243152         0.320887
 H        -0.586680         0.364291         0.322266
 H         0.010630        -0.068654        -1.442187
 H        -0.209454        -1.298968        -0.191819
 H         1.661198        -0.747871         1.983670
 H         2.537063        -1.942753         0.955573
 H         5.104580         0.647116         0.310501
 H         4.626763        -0.594562        -1.965897
 H         3.955334        -1.922947        -0.981785
 H         2.178922         0.162454        -2.289589
 H         3.172248         2.265794        -0.967566
