19
Iteration:  1984
 C         0.102267        -0.328608        -0.341226
 C         1.581081        -0.079217        -0.045668
 C         2.189096        -0.811873         1.192271
 O         3.538263        -0.378264         1.286767
 C         4.118202         0.149602         0.104675
 C         3.992464        -0.701594        -1.080778
 C         2.572674        -0.057449        -1.288116
 C         3.017349         1.232272        -0.560861
 O         1.821732         1.338569         0.228657
 H        -0.591793         0.306104         0.198210
 H        -0.070598        -0.226097        -1.399045
 H        -0.431552        -1.301400        -0.057947
 H         1.578367        -0.538328         2.025719
 H         2.100238        -1.879549         0.903253
 H         5.151622         0.497203         0.404727
 H         4.575202        -0.420239        -1.971619
 H         4.221642        -1.905834        -1.024878
 H         2.227188        -0.107189        -2.415160
 H         3.564802         2.063577        -0.995948
