19
Iteration:  2578
 C         0.042096        -0.316224        -0.379224
 C         1.478887        -0.090719        -0.067243
 C         2.140831        -0.779435         1.201380
 O         3.619201        -0.481594         1.219968
 C         4.081121         0.216221         0.111583
 C         4.045422        -0.593577        -1.193332
 C         2.537989        -0.031754        -1.301230
 C         3.025996         1.145261        -0.452394
 O         1.908240         1.256580         0.318142
 H        -0.131226        -0.235211        -1.447730
 H        -0.460127        -1.210992        -0.090326
 H        -0.603790         0.467168         0.016782
 H         1.849498        -0.185190         2.124526
 H         2.037547        -1.833787         1.276663
 H         5.170206         0.514684         0.369989
 H         4.648871        -0.254062        -1.987288
 H         4.299059        -1.669960        -1.088130
 H         2.098859        -0.046158        -2.338431
 H         3.389261         2.136052        -0.804881
