19
Iteration:   875
 C         0.079477        -0.251672        -0.396343
 C         1.550950        -0.128018        -0.051667
 C         2.330205        -1.127189         0.912096
 O         3.553808        -0.426229         1.262202
 C         4.112687         0.250297         0.151976
 C         3.920944        -0.675594        -1.119738
 C         2.532153         0.144311        -1.282780
 C         3.048884         1.311275        -0.410424
 O         1.786300         1.279444         0.402359
 H        -0.283308         0.688623        -0.916713
 H        -0.128684        -1.193635        -1.006480
 H        -0.539721        -0.517891         0.542685
 H         1.799085        -1.114373         1.880866
 H         2.542956        -2.115572         0.469376
 H         5.181029         0.474267         0.399834
 H         4.569396        -0.369322        -2.027133
 H         3.973475        -1.815403        -1.150285
 H         2.185509         0.380340        -2.190373
 H         3.315243         2.337889        -0.590501
