19
Iteration:  4392
 C         0.097629        -0.371755        -0.101426
 C         1.601011        -0.101172        -0.024560
 C         2.163012        -0.291401         1.323187
 O         3.478270         0.184484         1.341314
 C         4.110823         0.233468         0.124590
 C         3.858384        -1.183152        -0.602126
 C         2.559139        -0.507423        -1.186938
 C         3.151427         0.826039        -0.984486
 O         1.930557         1.449933        -0.398654
 H        -0.085651        -0.631917        -1.097142
 H        -0.390517        -1.066257         0.474036
 H        -0.313803         0.621314        -0.136396
 H         1.417880         0.095889         2.076096
 H         1.985333        -1.387544         1.453537
 H         5.100568         0.545312         0.217584
 H         4.670284        -1.446267        -1.339134
 H         3.733198        -1.974937         0.182492
 H         2.117076        -0.911631        -2.163747
 H         3.693477         1.459239        -1.675966
