19
Iteration:  3462charge 0 multiplicity 1
 C         0.114445        -0.403372        -0.177499
 C         1.552532        -0.010685        -0.109912
 C         2.247643        -0.642420         1.128773
 O         3.543057        -0.243120         1.380254
 C         4.106643         0.213996         0.154505
 C         3.840307        -0.961880        -0.863891
 C         2.553157        -0.195349        -1.318721
 C         3.121730         1.201320        -0.728274
 O         1.893403         1.419670        -0.032303
 H        -0.617101        -0.265012         0.693013
 H        -0.471234         0.330351        -0.901921
 H         0.033521        -1.432351        -0.592314
 H         1.815535        -0.577599         2.157720
 H         2.201890        -1.745715         1.036065
 H         5.123702         0.583432         0.426781
 H         4.375013        -0.956683        -1.799485
 H         3.679033        -1.979746        -0.398048
 H         2.074566        -0.563475        -2.231528
 H         3.333471         2.063909        -1.312032
