19
Iteration:  2362charge 0 multiplicity 1
 C         0.146217        -0.394385        -0.323134
 C         1.639434        -0.017768        -0.069454
 C         2.202601        -0.820437         1.150230
 O         3.571926        -0.374211         1.303369
 C         4.057247         0.177662         0.142782
 C         3.853954        -0.752127        -1.049906
 C         2.545877        -0.092153        -1.326879
 C         3.050846         1.181661        -0.558372
 O         1.846318         1.421148         0.184915
 H        -0.280662        -1.025602         0.437810
 H        -0.319046         0.546075        -0.343055
 H         0.044024        -0.793407        -1.362184
 H         1.599053        -0.438502         1.981551
 H         2.020338        -1.890727         0.879607
 H         5.103308         0.513079         0.342498
 H         4.684329        -0.581325        -1.867931
 H         3.964433        -1.786654        -0.761703
 H         1.962719        -0.185471        -2.283541
 H         3.539054         2.193698        -0.745818
