19
Iteration:  2515
 C         0.018534        -0.457873        -0.271274
 C         1.528226        -0.020782        -0.128865
 C         2.331967        -0.938757         0.920104
 O         3.510626        -0.305975         1.405137
 C         4.093248         0.143346         0.201956
 C         3.838543        -0.807845        -1.097951
 C         2.551525         0.045905        -1.353637
 C         3.068935         1.243911        -0.505961
 O         1.936117         1.450477         0.248247
 H        -0.422536         0.457503        -0.583797
 H         0.041830        -1.240331        -0.985664
 H        -0.152441        -0.779974         0.838998
 H         1.664641        -0.959039         1.833395
 H         2.465217        -2.005919         0.687900
 H         5.170863         0.409852         0.505242
 H         4.481899        -0.612295        -1.988096
 H         3.819563        -1.844362        -0.820932
 H         2.079428         0.298005        -2.399065
 H         3.493607         2.167355        -1.037575
