19
Iteration:  2783
 C         0.070054        -0.347946        -0.356908
 C         1.542749        -0.086436        -0.121123
 C         2.269163        -0.888049         1.071492
 O         3.619061        -0.318717         1.289123
 C         4.094967         0.190981         0.128952
 C         3.834483        -0.824309        -0.990789
 C         2.524732        -0.025817        -1.266496
 C         3.052707         1.258153        -0.552335
 O         1.899378         1.386998         0.266111
 H        -0.580122         0.501370        -0.698689
 H         0.121545        -1.099964        -1.267176
 H        -0.514597        -0.861802         0.462894
 H         1.768095        -0.863631         2.027421
 H         2.418445        -1.881770         0.714848
 H         5.118681         0.595439         0.319693
 H         4.496149        -0.523802        -1.826739
 H         3.693571        -1.916113        -0.703885
 H         2.145559         0.084205        -2.258819
 H         3.338620         2.248456        -0.929771
