19
Iteration:  3634charge 0 multiplicity 1
 C         0.093025        -0.357558        -0.373313
 C         1.519478         0.015533        -0.020886
 C         2.235604        -0.621826         1.253704
 O         3.666264        -0.149160         1.407349
 C         4.084757         0.208596         0.036871
 C         3.967464        -1.019933        -0.873152
 C         2.430667        -0.366150        -1.260809
 C         2.984042         1.094197        -0.716634
 O         1.869869         1.498018         0.018955
 H         0.181216        -1.228807        -1.016029
 H        -0.613658        -0.434001         0.424955
 H        -0.333765         0.513190        -0.887905
 H         1.754263        -0.184675         2.187889
 H         2.209692        -1.789257         1.194039
 H         5.187341         0.487193         0.383774
 H         4.599845        -0.884238        -1.919475
 H         4.029870        -2.054722        -0.413555
 H         2.104832        -0.654450        -2.270837
 H         3.485069         1.915912        -1.381227
