19
Iteration:  1686charge 0 multiplicity 1
 C         0.110711        -0.443864        -0.251587
 C         1.528666        -0.052030        -0.111535
 C         2.226231        -0.732561         1.146252
 O         3.567207        -0.478303         1.320402
 C         4.082105         0.182447         0.184316
 C         3.957281        -0.753599        -1.060722
 C         2.535921        -0.071224        -1.356539
 C         3.085781         1.241456        -0.515360
 O         1.838350         1.455913         0.112136
 H        -0.291697        -0.895887         0.684116
 H        -0.535659         0.413058        -0.604901
 H        -0.029809        -1.163125        -1.035022
 H         1.520541        -0.352654         1.792817
 H         2.138219        -1.844251         1.132893
 H         4.993549         0.532024         0.556795
 H         4.638399        -0.441954        -1.852932
 H         4.032292        -1.861828        -0.982525
 H         2.098575         0.024152        -2.499702
 H         3.590846         2.191391        -0.858314
