19
Iteration:  1151
 C         0.019496        -0.283803        -0.371956
 C         1.595201        -0.121407        -0.035235
 C         2.333764        -1.044474         0.911939
 O         3.498354        -0.347188         1.335413
 C         4.122489         0.193383         0.117493
 C         3.893100        -0.573051        -1.163484
 C         2.528126         0.113677        -1.363379
 C         3.039355         1.236820        -0.426412
 O         1.912768         1.200105         0.470395
 H        -0.637729         0.587718        -0.218301
 H        -0.073100        -0.527111        -1.431042
 H        -0.587964        -1.083067         0.037200
 H         1.785878        -1.173492         1.760359
 H         2.609835        -2.075546         0.505070
 H         5.092412         0.536518         0.483579
 H         4.549086        -0.193549        -2.029871
 H         3.964016        -1.746120        -1.024310
 H         1.991703         0.293571        -2.498417
 H         3.315203         2.167714        -0.816475
