19
Iteration:    59charge 0 multiplicity 1
 C         0.134568        -0.308214        -0.291565
 C         1.651105        -0.099709        -0.079072
 C         2.237627        -1.228075         0.765300
 O         3.635027        -0.830782         1.128804
 C         4.091550         0.246528         0.165656
 C         3.955998        -0.267017        -1.329581
 C         2.578164         0.371427        -1.340361
 C         2.876517         1.438008        -0.144371
 O         1.768474         1.169516         0.577814
 H        -0.371473        -0.241216         0.652184
 H        -0.200993         0.282998        -0.992609
 H        -0.132201        -1.396954        -0.681273
 H         1.661504        -1.349593         1.733927
 H         2.216532        -2.155267         0.299026
 H         5.158329         0.484118         0.359897
 H         4.658535         0.156580        -2.048756
 H         4.088851        -1.446583        -1.444865
 H         2.073358         0.577747        -2.348777
 H         3.049358         2.508004        -0.104515
