19
Iteration:  1445charge 0 multiplicity 1
 C         0.056486        -0.338292        -0.181923
 C         1.591408        -0.071787        -0.030855
 C         2.184668        -0.866459         0.979373
 O         3.498517        -0.557110         1.274810
 C         4.083686         0.274718         0.168556
 C         4.030166        -0.644749        -1.093662
 C         2.622550         0.005106        -1.339640
 C         3.080296         1.235084        -0.488231
 O         1.811084         1.363281         0.128875
 H        -0.298441        -0.717367        -1.294655
 H         0.052089        -1.117073         0.588839
 H        -0.479231         0.561927         0.134414
 H         1.532045        -0.640980         2.036441
 H         2.085527        -1.918693         0.811551
 H         4.853051         0.577468         0.870510
 H         4.742361        -0.504765        -1.923629
 H         4.144545        -1.704519        -0.842352
 H         2.200130        -0.054843        -2.231782
 H         3.385843         2.183891        -1.105407
