19
Iteration:  2202
 C         0.042930        -0.280996        -0.289007
 C         1.510506        -0.047138        -0.059455
 C         2.139646        -0.745059         1.118069
 O         3.624790        -0.523625         1.211986
 C         4.127877         0.237023         0.148582
 C         4.057367        -0.714718        -1.067483
 C         2.568544        -0.105310        -1.198722
 C         3.049724         1.216214        -0.542331
 O         1.787554         1.323245         0.134229
 H        -0.569809         0.464520         0.260240
 H        -0.209192        -0.280234        -1.349170
 H        -0.263237        -1.373921        -0.032200
 H         1.812954        -0.246050         2.130900
 H         2.054840        -1.895749         1.097487
 H         5.009968         0.666708         0.582879
 H         4.684756        -0.292946        -1.794617
 H         4.277392        -1.782965        -0.916421
 H         2.236533        -0.268639        -2.214464
 H         3.372013         2.178719        -0.952830
