19
Iteration:  2347
 C         0.090664        -0.338017        -0.354497
 C         1.545391        -0.180449        -0.061358
 C         2.141222        -0.720515         1.181612
 O         3.562751        -0.497600         1.323168
 C         4.091220         0.273443         0.121806
 C         3.972001        -0.732910        -1.089815
 C         2.551197        -0.052321        -1.279778
 C         3.068606         1.212428        -0.599696
 O         1.885073         1.369306         0.190770
 H        -0.304431        -0.953130         0.506108
 H        -0.467058         0.646745        -0.267115
 H        -0.044357        -0.756875        -1.314705
 H         1.723808        -0.360206         2.175511
 H         2.165576        -1.795218         1.290071
 H         5.052675         0.741179         0.490445
 H         4.547548        -0.469230        -1.878125
 H         4.076504        -1.819746        -0.931088
 H         2.174448        -0.012787        -2.325299
 H         3.350776         1.976503        -1.315811
