19
Iteration:  4669
 C         0.156919        -0.321419        -0.181270
 C         1.599328        -0.052731        -0.091629
 C         2.155441        -0.052245         1.329385
 O         3.531575         0.440445         1.401667
 C         4.053408         0.220233         0.118298
 C         3.776876        -1.298939        -0.396677
 C         2.550572        -0.701675        -1.069686
 C         3.183352         0.663685        -1.098880
 O         1.910057         1.280142        -0.549384
 H        -0.331713         0.411495         0.533158
 H        -0.046591        -0.015121        -1.243877
 H        -0.123675        -1.320598         0.155461
 H         1.556598         0.746424         1.912047
 H         2.192151        -1.069241         1.790478
 H         5.122063         0.606134         0.137697
 H         4.606177        -1.625704        -1.097972
 H         3.644832        -1.999639         0.392483
 H         1.903051        -1.125637        -1.918377
 H         3.665075         1.087224        -1.965628
