19
Iteration:  1158charge 0 multiplicity 1
 C         0.074596        -0.285548        -0.315781
 C         1.514500        -0.116769        -0.124575
 C         2.325407        -1.039207         0.881023
 O         3.496436        -0.388704         1.332310
 C         4.103679         0.227447         0.164317
 C         3.935696        -0.598155        -1.220891
 C         2.525963         0.083794        -1.322549
 C         3.034657         1.207624        -0.427695
 O         1.900947         1.231660         0.442453
 H        -0.406390         0.722943        -0.159583
 H        -0.182468        -0.448135        -1.393403
 H        -0.496197        -1.128285         0.163767
 H         1.800002        -1.101023         1.945730
 H         2.566878        -1.987133         0.462360
 H         5.016784         0.703669         0.495744
 H         4.660250        -0.197821        -1.888484
 H         4.189293        -1.567905        -1.081634
 H         1.836298         0.204886        -2.172309
 H         3.445927         2.243550        -0.693143
