19
Iteration:  3392
 C         0.080723        -0.293926        -0.346369
 C         1.558333        -0.050278         0.049022
 C         2.243081        -0.683905         1.188181
 O         3.540152        -0.214348         1.304965
 C         4.069018         0.266721         0.089896
 C         3.935709        -0.930271        -1.005542
 C         2.519976        -0.258841        -1.247381
 C         3.049284         1.115390        -0.655604
 O         1.910446         1.354664         0.112713
 H        -0.350023         0.565331        -0.865864
 H        -0.004830        -1.013476        -1.124356
 H        -0.639488        -0.585318         0.477019
 H         1.646368        -0.557436         2.111863
 H         2.310609        -1.788083         1.068263
 H         5.075454         0.726858         0.285892
 H         4.567920        -0.857469        -1.888416
 H         3.937754        -1.797933        -0.458094
 H         2.129696        -0.174625        -2.295103
 H         3.607752         1.951959        -1.187503
