19
Iteration:  2747charge 0 multiplicity 1
 C         0.177064        -0.353247        -0.191680
 C         1.586612        -0.077533        -0.103492
 C         2.202527        -0.862660         1.014197
 O         3.466824        -0.279451         1.342534
 C         4.045760         0.157545         0.174109
 C         3.830006        -0.781403        -1.107195
 C         2.560981         0.055847        -1.354883
 C         3.101492         1.214916        -0.513779
 O         1.914329         1.301545         0.187270
 H        -0.511709         0.317800        -0.759162
 H         0.192588        -1.355591        -0.672135
 H        -0.135071        -0.558857         0.799633
 H         1.531473        -0.884701         1.880966
 H         2.455344        -1.916596         0.825962
 H         5.019324         0.444357         0.412022
 H         4.534943        -0.387332        -1.836778
 H         4.002225        -1.802346        -1.262475
 H         2.107133         0.128843        -2.371792
 H         3.611572         2.113745        -0.826243
