19
Iteration:  2182charge 0 multiplicity 1
 C        -0.024003        -0.348672        -0.231699
 C         1.558028        -0.128842        -0.083780
 C         2.171958        -0.864095         1.126977
 O         3.522251        -0.417047         1.316450
 C         4.113358         0.250577         0.162996
 C         4.056014        -0.670394        -1.064986
 C         2.609305        -0.066573        -1.379722
 C         3.084627         1.157275        -0.555768
 O         1.872447         1.408139         0.159974
 H        -0.385797         0.473641         0.400025
 H        -0.446849        -0.214779        -1.207162
 H        -0.438491        -1.302690        -0.022275
 H         1.570016        -0.535620         2.074942
 H         2.148110        -1.953848         0.971725
 H         5.136250         0.627418         0.447000
 H         4.668800        -0.555102        -1.935512
 H         3.971365        -1.786374        -0.842748
 H         2.210397         0.092984        -2.424919
 H         3.386310         2.034006        -1.099864
