19
Iteration:  4470
 C         0.091687        -0.316498        -0.186886
 C         1.616463        -0.055142        -0.055672
 C         2.123880        -0.152494         1.337459
 O         3.520934         0.178173         1.364678
 C         4.093284         0.150901         0.145121
 C         3.890055        -1.148879        -0.561399
 C         2.603370        -0.604481        -1.111932
 C         3.056955         0.829668        -1.040110
 O         1.930391         1.390082        -0.427413
 H        -0.479661         0.385718         0.451605
 H        -0.290414        -0.233189        -1.169788
 H        -0.076640        -1.367984         0.177914
 H         1.636858         0.569433         2.161480
 H         1.868554        -1.251335         1.656579
 H         5.144307         0.435971         0.228122
 H         4.765327        -1.352719        -1.316222
 H         3.868405        -2.099106         0.018087
 H         2.126808        -1.245371        -1.978192
 H         3.472946         1.338605        -1.894488
