19
Iteration:  2306charge 0 multiplicity 1
 C         0.098505        -0.318872        -0.282836
 C         1.606172        -0.089495        -0.095455
 C         2.199943        -0.844900         1.115363
 O         3.548507        -0.365343         1.348954
 C         4.100981         0.238633         0.208198
 C         3.944914        -0.767113        -1.123490
 C         2.590637        -0.089465        -1.284734
 C         3.032620         1.128406        -0.597812
 O         1.829115         1.390691         0.149709
 H        -0.365388        -0.824005         0.539763
 H        -0.392751         0.645598        -0.321403
 H        -0.198762        -0.867874        -1.134588
 H         1.527010        -0.547542         1.937598
 H         2.016806        -1.940460         1.017346
 H         5.111848         0.677874         0.524479
 H         4.661798        -0.250124        -1.876258
 H         4.159361        -1.828484        -0.979110
 H         1.999980         0.090695        -2.224296
 H         3.517821         2.039187        -1.060867
