19
Iteration:  1851charge 0 multiplicity 1
 C         0.082972        -0.340391        -0.342920
 C         1.610141        -0.084070        -0.059966
 C         2.185989        -0.776650         1.126565
 O         3.597267        -0.439301         1.362253
 C         4.116425         0.225082         0.161013
 C         3.943349        -0.754497        -1.066221
 C         2.518475        -0.076016        -1.328171
 C         3.036334         1.213793        -0.553942
 O         1.829971         1.363965         0.166693
 H        -0.439398        -0.183666         0.589300
 H        -0.344679         0.432620        -1.071111
 H        -0.220450        -1.304106        -0.819811
 H         1.580219        -0.398836         1.905683
 H         2.234619        -1.935830         1.196164
 H         5.130183         0.461884         0.382657
 H         4.527285        -0.193600        -1.826375
 H         4.330555        -1.847294        -0.939058
 H         2.101301        -0.159787        -2.351295
 H         3.304821         2.133567        -1.089875
