19
Iteration:   990charge 0 multiplicity 1
 C         0.106074        -0.344804        -0.349233
 C         1.550654        -0.116781        -0.095796
 C         2.242310        -1.048394         0.936996
 O         3.511679        -0.511094         1.258660
 C         4.090584         0.224625         0.141580
 C         3.943236        -0.518257        -1.193241
 C         2.567666         0.159581        -1.285520
 C         3.061355         1.277517        -0.423083
 O         1.858714         1.239112         0.440292
 H        -0.300493        -0.048542        -1.330124
 H        -0.116337        -1.397266        -0.009807
 H        -0.329240         0.295432         0.418998
 H         1.638389        -1.018629         1.932579
 H         2.331520        -2.027745         0.560519
 H         5.100633         0.549652         0.452512
 H         4.518285        -0.067630        -1.928113
 H         3.995928        -1.575182        -1.273382
 H         1.974871         0.481596        -2.244350
 H         3.480653         2.238847        -0.862453
