19
Iteration:  3490charge 0 multiplicity 1
 C         0.136953        -0.327656        -0.331932
 C         1.563748        -0.081055        -0.041942
 C         2.267618        -0.678725         1.265292
 O         3.498977        -0.043047         1.373142
 C         4.061654         0.140908         0.104069
 C         3.897797        -0.998885        -1.004314
 C         2.534687        -0.204961        -1.285094
 C         3.089211         1.060089        -0.704145
 O         1.898122         1.422272         0.101286
 H        -0.449624        -0.812305         0.399849
 H        -0.386311         0.492773        -0.641450
 H         0.008969        -0.939050        -1.259132
 H         1.750609        -0.388757         2.178604
 H         2.280229        -1.745766         1.540709
 H         5.104176         0.507950         0.229571
 H         4.493673        -0.905778        -1.949216
 H         3.816748        -2.031811        -0.607514
 H         2.008149        -0.217417        -2.263482
 H         3.365335         1.758395        -1.567708
