19
Iteration:  4583charge 0 multiplicity 1
 C         0.072823        -0.262017        -0.160634
 C         1.528720        -0.010326        -0.042669
 C         2.178824        -0.097405         1.300057
 O         3.533283         0.285251         1.392317
 C         4.118489         0.248065         0.133429
 C         3.867658        -1.253538        -0.462258
 C         2.592315        -0.715641        -1.098274
 C         3.138467         0.732758        -0.996051
 O         1.888661         1.285905        -0.557135
 H         0.007571        -0.616780        -1.145825
 H        -0.423869        -0.873671         0.580086
 H        -0.481908         0.622387        -0.203094
 H         1.678460         0.470086         2.147819
 H         2.092782        -1.111995         1.700352
 H         5.128895         0.734809         0.059464
 H         4.567841        -1.318989        -1.379357
 H         3.860434        -2.142799         0.249020
 H         2.160148        -1.156073        -1.995722
 H         3.655114         1.256013        -1.809144
