19
Iteration:  3814
 C         0.108632        -0.380219        -0.171287
 C         1.575092        -0.028699        -0.053352
 C         2.249444        -0.693689         1.123105
 O         3.502287        -0.171417         1.388715
 C         4.130960         0.157681         0.129653
 C         3.819556        -0.939675        -0.894452
 C         2.539980        -0.201810        -1.275117
 C         3.124574         1.165680        -0.763659
 O         1.883066         1.435615        -0.060474
 H        -0.216333        -1.000991         0.693146
 H        -0.506446         0.519037        -0.069544
 H        -0.026090        -0.699639        -1.263144
 H         1.637951        -0.585096         2.075896
 H         2.372783        -1.827033         1.091126
 H         5.057348         0.527928         0.422279
 H         4.715817        -1.066807        -1.684093
 H         3.740664        -1.977155        -0.405678
 H         1.941746        -0.312937        -2.202581
 H         3.501841         1.946361        -1.384365
