19
Iteration:  2336charge 0 multiplicity 1
 C         0.004494        -0.315448        -0.324339
 C         1.556514        -0.088685        -0.041127
 C         2.138894        -0.785927         1.232768
 O         3.579352        -0.441364         1.255975
 C         4.180871         0.246559         0.177791
 C         4.014066        -0.692493        -1.143695
 C         2.614468        -0.104717        -1.276070
 C         3.039521         1.153511        -0.629691
 O         1.845040         1.329300         0.192190
 H        -0.516816        -1.063225         0.358161
 H        -0.486005         0.711465        -0.364533
 H        -0.141382        -0.804696        -1.254212
 H         1.565742        -0.050377         1.901626
 H         1.752865        -1.802536         1.298857
 H         5.193372         0.613284         0.552728
 H         4.650179        -0.392268        -1.854290
 H         4.191764        -1.746972        -0.878454
 H         2.023650        -0.067677        -2.224840
 H         3.359175         2.124825        -0.982889
