19
Iteration:   304
 C         0.100219        -0.305779        -0.346719
 C         1.550073        -0.085024        -0.187356
 C         2.223869        -1.140789         0.702555
 O         3.649948        -0.706786         1.128320
 C         4.138504         0.221585         0.179987
 C         3.940983        -0.339994        -1.210815
 C         2.556211         0.296382        -1.322576
 C         2.944138         1.314837        -0.121286
 O         1.806918         1.157394         0.603617
 H        -0.240547        -0.827860         0.569634
 H        -0.555342         0.676787        -0.214590
 H        -0.083104        -0.836209        -1.214673
 H         1.619554        -1.275601         1.647826
 H         2.359127        -2.164038         0.192395
 H         5.052423         0.532930         0.579002
 H         4.645485         0.247483        -1.949115
 H         4.017691        -1.416841        -1.361195
 H         2.159644         0.643163        -2.268293
 H         3.232153         2.348872        -0.336428
