19
Iteration:   927
 C         0.153047        -0.406772        -0.404948
 C         1.610114        -0.124122        -0.036053
 C         2.189881        -0.920650         1.067371
 O         3.572633        -0.583970         1.213913
 C         4.088062         0.197882         0.124426
 C         3.889097        -0.527300        -1.204230
 C         2.550541         0.188294        -1.268187
 C         3.070007         1.267714        -0.355748
 O         1.812768         1.332717         0.350672
 H        -0.357939         0.408448        -0.736765
 H        -0.012940        -1.262616        -1.096240
 H        -0.327748        -0.749357         0.498404
 H         1.675608        -0.778748         1.949747
 H         2.094834        -2.064550         0.755520
 H         5.143719         0.461744         0.411605
 H         4.610859        -0.283221        -2.100498
 H         3.842052        -1.613227        -1.203513
 H         2.088795         0.151781        -2.327805
 H         3.431351         2.336016        -0.576349
