19
Iteration:  4081charge 0 multiplicity 1
 C         0.079025        -0.358079        -0.247752
 C         1.602370        -0.050408        -0.002381
 C         2.145485        -0.517994         1.322625
 O         3.527343        -0.009313         1.421367
 C         4.150819         0.166934         0.009213
 C         3.833469        -1.056700        -0.854718
 C         2.593142        -0.365537        -1.280090
 C         3.102372         1.060235        -0.800903
 O         1.896302         1.410956        -0.119695
 H        -0.550917        -0.395448         0.632400
 H        -0.288249         0.379206        -0.893214
 H         0.010369        -1.256847        -0.718388
 H         1.755683        -0.065518         2.183963
 H         2.167474        -1.537485         1.499542
 H         5.257877         0.502257         0.032311
 H         4.504511        -1.050452        -1.669955
 H         3.568171        -1.979432        -0.306289
 H         2.145192        -0.710130        -2.182723
 H         3.536512         1.848767        -1.491825
