19
Iteration:   573
 C         0.053887        -0.347711        -0.339302
 C         1.581824        -0.121871        -0.083282
 C         2.183767        -1.063458         0.965973
 O         3.562326        -0.727178         1.211134
 C         4.112450         0.182578         0.182351
 C         4.059813        -0.339598        -1.317101
 C         2.573107         0.271812        -1.334436
 C         2.979531         1.316121        -0.257158
 O         1.826635         1.263337         0.433640
 H        -0.532476         0.380987         0.339599
 H        -0.192568        -0.304890        -1.401007
 H        -0.212752        -1.442507        -0.052587
 H         1.656884        -0.852436         1.828289
 H         2.057202        -2.122027         0.693117
 H         5.073552         0.559622         0.538504
 H         4.745616        -0.003280        -2.134844
 H         4.093439        -1.479660        -1.358935
 H         2.072829         0.382416        -2.202630
 H         3.446238         2.207321        -0.690101
