19
Iteration:  2627
 C         0.106547        -0.364015        -0.191966
 C         1.578399        -0.020922        -0.136376
 C         2.254586        -0.929067         0.910472
 O         3.541566        -0.415339         1.377087
 C         4.061620         0.250635         0.186668
 C         3.819985        -0.771341        -1.076940
 C         2.597528         0.111746        -1.378703
 C         3.115789         1.233581        -0.554025
 O         1.831172         1.361834         0.280895
 H        -0.125466        -0.819668        -1.221194
 H        -0.141580        -1.276550         0.461154
 H        -0.672215         0.402834         0.029546
 H         1.806507        -1.105862         1.882929
 H         2.469765        -1.908012         0.440122
 H         5.057160         0.422121         0.488015
 H         4.580335        -0.711508        -1.918963
 H         3.880560        -1.816701        -0.783514
 H         2.147003         0.109506        -2.369973
 H         3.581684         2.130532        -0.968232
