19
Iteration:  4263
 C         0.144483        -0.309963        -0.140868
 C         1.603838        -0.072289        -0.121602
 C         2.158510        -0.369762         1.296846
 O         3.497125         0.113302         1.396709
 C         4.033954         0.165192         0.141085
 C         3.876844        -1.057389        -0.682738
 C         2.549892        -0.484798        -1.283495
 C         3.142435         0.879030        -0.905030
 O         1.911059         1.373916        -0.260023
 H        -0.270367         0.716649         0.177655
 H        -0.266213        -0.672905        -1.087930
 H        -0.198611        -0.987421         0.720164
 H         1.550490         0.153202         2.081687
 H         2.193987        -1.444899         1.329965
 H         5.022931         0.546452         0.092087
 H         4.757372        -1.118574        -1.424249
 H         3.968077        -2.051893        -0.230536
 H         2.049619        -0.823807        -2.255616
 H         3.505745         1.590153        -1.583689
