19
Iteration:  2005
 C         0.130270        -0.340783        -0.368723
 C         1.563808        -0.086805        -0.121905
 C         2.257848        -0.881946         1.048584
 O         3.515683        -0.218901         1.373368
 C         4.145969         0.224927         0.174097
 C         3.846789        -0.787558        -1.118492
 C         2.497106        -0.062874        -1.294274
 C         3.069333         1.181461        -0.496650
 O         1.887258         1.318675         0.254440
 H        -0.459673         0.328646         0.231111
 H        -0.154846        -0.091522        -1.377173
 H        -0.357028        -1.324075        -0.066119
 H         1.760483        -0.960796         2.069616
 H         2.479193        -1.901706         0.759851
 H         5.105686         0.693502         0.367924
 H         4.705081        -0.676434        -1.779924
 H         3.600057        -1.958808        -1.076680
 H         2.195568         0.007030        -2.342438
 H         3.507815         2.025968        -1.024074
