19
Iteration:   818
 C         0.051465        -0.474175        -0.294388
 C         1.520956        -0.088434        -0.059881
 C         2.156443        -0.897253         1.030163
 O         3.550067        -0.604225         1.204649
 C         4.131273         0.171668         0.171752
 C         4.046209        -0.500327        -1.271699
 C         2.628585         0.184427        -1.340968
 C         3.066333         1.257356        -0.362280
 O         1.794893         1.339321         0.357778
 H        -0.281229        -0.283671        -1.296854
 H        -0.126198        -1.608843         0.006615
 H        -0.484333         0.291220         0.329181
 H         1.560335        -0.824749         1.874097
 H         1.947072        -1.921256         0.636117
 H         5.150154         0.230654         0.642056
 H         4.778828         0.045048        -2.051239
 H         3.979308        -1.603697        -1.257070
 H         2.240889         0.442640        -2.186898
 H         3.463749         2.315200        -0.492638
