19
Iteration:  4273
 C         0.159514        -0.294224        -0.138838
 C         1.616474        -0.087460        -0.079865
 C         2.179204        -0.393815         1.232321
 O         3.457888         0.198255         1.462699
 C         4.090793         0.183900         0.115809
 C         3.890353        -1.145471        -0.747164
 C         2.539022        -0.500079        -1.257248
 C         3.086970         0.908181        -0.897278
 O         1.928769         1.354204        -0.271106
 H        -0.305930         0.601139         0.340318
 H        -0.262934        -0.327389        -1.126132
 H        -0.087068        -1.256116         0.427714
 H         1.437505         0.000690         2.014287
 H         2.158176        -1.477539         1.456855
 H         5.090660         0.539488         0.273616
 H         4.667561        -1.150732        -1.625913
 H         3.781344        -2.041820        -0.092312
 H         1.915305        -0.564145        -2.226487
 H         3.636023         1.488983        -1.582868
