19
Iteration:   324charge 0 multiplicity 1
 C         0.071832        -0.355360        -0.269131
 C         1.621630        -0.174473        -0.075916
 C         2.242908        -1.183181         0.833704
 O         3.528260        -0.800800         1.069559
 C         4.034801         0.263183         0.203454
 C         4.065759        -0.276379        -1.297834
 C         2.604975         0.377536        -1.325780
 C         3.030567         1.353251        -0.275927
 O         1.777268         1.191735         0.540451
 H        -0.363484        -0.976196         0.572679
 H        -0.396872         0.683437         0.085177
 H        -0.112914        -0.546055        -1.269437
 H         1.536635        -1.274128         1.803515
 H         2.101061        -2.178907         0.285489
 H         4.843231         0.613315         0.840329
 H         4.789159         0.284068        -1.948772
 H         4.085617        -1.351967        -1.332754
 H         2.047621         0.723572        -2.300551
 H         3.475913         2.382092        -0.332786
