19
Iteration:  4936
 C         0.115766        -0.318791        -0.117433
 C         1.587525         0.012699        -0.082120
 C         2.067415         0.197202         1.376914
 O         3.497955         0.552109         1.339298
 C         4.020958         0.187932         0.046883
 C         3.827712        -1.335998        -0.257489
 C         2.594210        -0.900079        -0.945303
 C         3.234169         0.535250        -1.174915
 O         2.005172         1.254502        -0.736434
 H        -0.049299        -1.168547         0.591719
 H        -0.491409         0.458845         0.338300
 H        -0.243153        -0.623269        -1.168018
 H         1.500226         0.979867         1.923497
 H         1.785981        -0.740993         1.959822
 H         5.043309         0.583889         0.186685
 H         4.562154        -1.750766        -0.898990
 H         3.637737        -1.967745         0.613751
 H         2.005009        -1.439127        -1.625685
 H         3.796612         0.935415        -2.090566
