19
Iteration:  3654
 C         0.083022        -0.368461        -0.229062
 C         1.566047        -0.079761         0.005209
 C         2.170268        -0.580906         1.244188
 O         3.522553        -0.180869         1.372839
 C         4.131671         0.216292         0.089314
 C         3.881156        -0.915668        -0.933354
 C         2.611578        -0.239671        -1.229140
 C         3.132337         1.064975        -0.765157
 O         1.851516         1.379576        -0.078579
 H         0.003466        -1.427785        -0.511200
 H        -0.520485        -0.176525         0.633133
 H        -0.275587         0.407165        -0.948123
 H         1.673025        -0.308906         2.192679
 H         2.048024        -1.599639         1.286187
 H         5.220986         0.560216         0.237673
 H         4.490211        -0.711209        -1.884166
 H         3.774806        -2.010346        -0.641338
 H         2.016506        -0.237570        -2.161835
 H         3.635674         1.858937        -1.428570
