19
Iteration:  1074
 C         0.131443        -0.525522        -0.245756
 C         1.498833        -0.095832        -0.086987
 C         2.113057        -0.878508         1.004857
 O         3.548143        -0.633651         1.190716
 C         4.153794         0.176141         0.150478
 C         3.984694        -0.454002        -1.254196
 C         2.591363         0.160968        -1.314172
 C         3.082049         1.245413        -0.342797
 O         1.832622         1.395576         0.342381
 H        -0.586510         0.283763        -0.614794
 H         0.036286        -1.236069        -1.021181
 H        -0.411453        -0.836764         0.668544
 H         1.705359        -0.687259         1.957859
 H         1.973555        -2.033783         0.966831
 H         5.132553         0.416200         0.541495
 H         4.697135         0.101842        -2.030816
 H         4.052508        -1.658734        -1.319299
 H         2.097752         0.464664        -2.249604
 H         3.511557         2.135999        -0.691590
