19
Iteration:  2911
 C         0.089146        -0.292366        -0.332532
 C         1.535920        -0.117779        -0.054219
 C         2.178270        -0.926985         1.156368
 O         3.571894        -0.254041         1.289695
 C         4.124902         0.103263         0.096251
 C         3.941898        -0.690516        -1.157912
 C         2.542986        -0.026275        -1.352258
 C         3.024974         1.207490        -0.480760
 O         1.892976         1.312527         0.298039
 H        -0.033591        -0.371553        -1.430882
 H        -0.248098        -1.226271         0.168587
 H        -0.465931         0.494303         0.078098
 H         1.621940        -0.732581         2.079767
 H         2.254544        -1.944188         0.862269
 H         5.129179         0.366596         0.352914
 H         4.680944        -0.331928        -1.933679
 H         4.081850        -1.766422        -1.235833
 H         1.925159        -0.050587        -2.306165
 H         3.323533         2.235786        -0.860080
