19
Iteration:  3509charge 0 multiplicity 1
 C         0.029711        -0.319250        -0.362340
 C         1.564169        -0.127751        -0.023304
 C         2.149643        -0.578464         1.275680
 O         3.591907        -0.039241         1.385735
 C         4.146199         0.168708         0.068113
 C         3.852763        -0.925607        -1.025511
 C         2.561928        -0.298279        -1.253647
 C         3.099154         1.093291        -0.740763
 O         1.932048         1.289214         0.074646
 H        -0.581995        -0.908433         0.371891
 H        -0.462903         0.730400        -0.242840
 H        -0.058330        -0.809366        -1.374442
 H         1.656067        -0.275363         2.236590
 H         2.131548        -1.710390         1.358120
 H         5.153578         0.450534         0.273201
 H         4.656468        -0.628532        -1.767818
 H         3.822673        -2.067269        -0.678291
 H         2.002110        -0.361664        -2.205469
 H         3.423876         2.123399        -0.928603
