19
Iteration:  1907charge 0 multiplicity 1
 C         0.162678        -0.382323        -0.353041
 C         1.596907        -0.083968        -0.080751
 C         2.238681        -0.828657         1.094798
 O         3.518700        -0.261625         1.348022
 C         4.078364         0.224344         0.185891
 C         3.786310        -0.754895        -1.036701
 C         2.545516        -0.028647        -1.384601
 C         3.104236         1.147202        -0.543906
 O         1.908076         1.345319         0.221113
 H        -0.405760        -0.554200         0.540410
 H        -0.459149         0.408395        -0.758734
 H        -0.093230        -1.335344        -0.903505
 H         1.609902        -0.742737         1.894348
 H         2.320712        -1.986047         0.843066
 H         5.140017         0.443827         0.353555
 H         4.556452        -0.529407        -1.768176
 H         3.801227        -1.919863        -0.841086
 H         1.996987        -0.007410        -2.385401
 H         3.518140         2.064140        -0.984720
