19
Iteration:  4375charge 0 multiplicity 1
 C         0.084321        -0.343071        -0.175256
 C         1.556512         0.053465        -0.111722
 C         2.124993        -0.285499         1.312998
 O         3.502821         0.168332         1.445413
 C         4.109774         0.131509         0.117792
 C         3.891706        -1.160601        -0.649177
 C         2.587750        -0.566596        -1.152568
 C         3.132150         0.917708        -0.971892
 O         1.930785         1.353335        -0.394301
 H        -0.214255        -1.322850        -0.737892
 H        -0.072104        -0.646859         0.955498
 H        -0.613934         0.494727        -0.416045
 H         1.599501         0.273927         2.123168
 H         2.153720        -1.283502         1.779183
 H         5.201175         0.502958         0.215673
 H         4.602407        -1.169729        -1.527894
 H         3.959230        -2.136187        -0.199021
 H         2.104462        -0.924600        -2.035294
 H         3.460371         1.609223        -1.765686
