19
Iteration:  1224charge 0 multiplicity 1
 C         0.137759        -0.473750        -0.325074
 C         1.558825        -0.053259        -0.045827
 C         2.175592        -0.852846         1.010726
 O         3.568397        -0.568968         1.213772
 C         4.159769         0.137748         0.174089
 C         3.943584        -0.579175        -1.211907
 C         2.513288         0.154892        -1.305370
 C         3.059857         1.297424        -0.384220
 O         1.802802         1.343816         0.325310
 H        -0.616396         0.128251         0.323434
 H        -0.113135        -0.421267        -1.412976
 H         0.027584        -1.579991        -0.039762
 H         1.571351        -0.466103         1.988363
 H         2.079573        -1.931723         0.931757
 H         5.198141         0.225224         0.461937
 H         4.635831        -0.146587        -1.944610
 H         3.910950        -1.634132        -1.299275
 H         2.262491         0.232897        -2.259441
 H         3.482339         2.309842        -0.648780
