19
Iteration:  3975
 C         0.086908        -0.310931        -0.240760
 C         1.501795        -0.022712         0.002809
 C         2.167151        -0.649090         1.247043
 O         3.619287        -0.139547         1.338613
 C         4.135587         0.179488         0.079971
 C         3.895971        -0.934833        -0.851019
 C         2.554621        -0.339211        -1.174661
 C         3.061454         1.057212        -0.780822
 O         1.872336         1.473590        -0.105478
 H        -0.013772        -0.040474        -1.345491
 H        -0.163069        -1.480006        -0.317225
 H        -0.697305         0.261375         0.352217
 H         1.742717        -0.250509         2.196912
 H         2.102993        -1.780565         1.256698
 H         5.159906         0.599178         0.212424
 H         4.468956        -1.164493        -1.735211
 H         4.087006        -1.869107        -0.386419
 H         2.073423        -0.441042        -2.169763
 H         3.496419         1.764453        -1.517764
