19
Iteration:  4425
 C         0.077933        -0.328544        -0.209689
 C         1.564317        -0.033056        -0.030649
 C         2.168408        -0.255466         1.284211
 O         3.510127         0.295083         1.391344
 C         4.138141         0.130225         0.128616
 C         3.846798        -1.157815        -0.551615
 C         2.552245        -0.612783        -1.171190
 C         3.122864         0.836213        -1.028526
 O         1.909898         1.354115        -0.349664
 H        -0.116906         0.453977        -0.932048
 H        -0.224665        -1.255945        -0.681287
 H        -0.500225        -0.128891         0.716888
 H         1.674256         0.149790         2.220621
 H         2.481052        -1.292523         1.532435
 H         5.160430         0.319654         0.170940
 H         4.698124        -1.232466        -1.284648
 H         3.905234        -2.144082        -0.036869
 H         2.033740        -1.117924        -2.088698
 H         3.481728         1.624761        -1.683436
