19
Iteration:    68
 C         0.090847        -0.372172        -0.294305
 C         1.545589        -0.092782        -0.105535
 C         2.269657        -1.159413         0.825171
 O         3.653731        -0.857502         1.073595
 C         4.105829         0.194539         0.147001
 C         4.003819        -0.288410        -1.329914
 C         2.608456         0.417990        -1.290191
 C         2.923569         1.425785        -0.163954
 O         1.741736         1.195361         0.590610
 H        -0.434385        -0.366525         0.626771
 H        -0.357295         0.260776        -1.024169
 H         0.021289        -1.445577        -0.800608
 H         1.740778        -1.128020         1.823511
 H         2.082311        -2.177120         0.391153
 H         5.058597         0.521750         0.602954
 H         4.625239         0.284538        -1.953871
 H         4.059152        -1.370058        -1.576860
 H         2.091359         0.720611        -2.216202
 H         3.177302         2.459979        -0.278857
