19
Iteration:  4267charge 0 multiplicity 1
 C         0.167181        -0.301312        -0.140700
 C         1.599734        -0.087396        -0.107185
 C         2.171038        -0.360628         1.278581
 O         3.476145         0.144547         1.420633
 C         4.039523         0.164173         0.153981
 C         3.901535        -1.078836        -0.711962
 C         2.530872        -0.498485        -1.293101
 C         3.124979         0.879402        -0.889263
 O         1.916952         1.364172        -0.257757
 H        -0.197458         0.670475         0.273109
 H        -0.296158        -0.595752        -1.144712
 H        -0.132777        -1.033937         0.598496
 H         1.508299         0.084680         1.976498
 H         2.182188        -1.480079         1.285567
 H         5.101265         0.520406        -0.019345
 H         4.655793        -1.110454        -1.432728
 H         3.885921        -1.996420        -0.133329
 H         1.954095        -0.666538        -2.167330
 H         3.594557         1.567711        -1.667413
