19
Iteration:  2431
 C         0.188188        -0.348616        -0.327668
 C         1.518873        -0.102983         0.045492
 C         2.177731        -0.801138         1.108264
 O         3.534978        -0.406728         1.295278
 C         4.128033         0.196538         0.116591
 C         3.964050        -0.714035        -1.117422
 C         2.589429        -0.095261        -1.330267
 C         3.035401         1.196843        -0.549067
 O         1.823648         1.404862         0.219426
 H        -0.408643        -0.234382         0.622119
 H        -0.193427         0.525232        -0.919621
 H        -0.231815        -1.261678        -0.741210
 H         1.630385        -0.523359         2.000495
 H         2.019027        -1.904103         0.905411
 H         5.061258         0.583356         0.355997
 H         4.716133        -0.540282        -2.009046
 H         3.994044        -1.825480        -0.815568
 H         1.995183        -0.128655        -2.206905
 H         3.424264         2.052534        -1.103346
