19
Iteration:  2261charge 0 multiplicity 1
 C         0.123590        -0.419251        -0.323372
 C         1.502860        -0.079362        -0.135071
 C         2.257422        -0.804296         1.002010
 O         3.514345        -0.202155         1.346415
 C         4.118223         0.131673         0.133726
 C         3.880628        -0.854915        -1.078170
 C         2.536855         0.021976        -1.283543
 C         3.148889         1.178097        -0.497995
 O         1.860835         1.383868         0.287812
 H        -0.417385        -0.469644         0.618067
 H        -0.360181         0.288710        -1.011895
 H         0.140066        -1.369692        -0.683591
 H         1.506195        -0.741663         1.841980
 H         2.296695        -1.863188         0.784041
 H         5.172267         0.568404         0.309438
 H         4.598171        -0.912299        -1.927242
 H         3.575819        -1.884986        -0.768380
 H         2.236257         0.009193        -2.366400
 H         3.391781         2.080258        -1.075614
