19
Iteration:  1677charge 0 multiplicity 1
 C         0.077493        -0.470913        -0.285534
 C         1.563593        -0.087286        -0.143687
 C         2.178909        -0.754251         1.127535
 O         3.556736        -0.370101         1.329522
 C         4.119201         0.154376         0.134399
 C         3.913845        -0.803310        -1.079820
 C         2.602198         0.041966        -1.309064
 C         3.074579         1.215486        -0.526410
 O         1.841919         1.415107         0.180253
 H        -0.367439        -0.945706         0.532432
 H        -0.501690         0.474363        -0.574982
 H        -0.134950        -1.132105        -1.138046
 H         1.792681        -0.285688         2.121077
 H         2.018748        -1.805099         1.154303
 H         5.103514         0.528444         0.426713
 H         4.498188        -0.577440        -1.884370
 H         4.137002        -1.857110        -0.851127
 H         2.076860        -0.021425        -2.350737
 H         3.604703         2.041353        -0.929011
