19
Iteration:  3059charge 0 multiplicity 1
 C         0.066272        -0.285995        -0.247064
 C         1.543298        -0.099792        -0.033488
 C         2.199344        -0.756885         1.112246
 O         3.551578        -0.423541         1.367811
 C         4.143750         0.126157         0.136428
 C         3.979862        -0.673976        -1.207707
 C         2.608439        -0.092712        -1.334708
 C         3.026492         1.151502        -0.506901
 O         1.817777         1.357084         0.175310
 H        -0.344662         0.760005        -0.164071
 H        -0.060727        -0.639172        -1.250232
 H        -0.316888        -1.037684         0.468115
 H         1.525037        -0.437704         1.929943
 H         2.190308        -1.834998         1.045503
 H         5.061751         0.676615         0.292290
 H         4.511973        -0.250967        -2.029431
 H         4.095192        -1.753228        -0.924649
 H         2.213089        -0.156417        -2.329247
 H         3.369092         2.001711        -1.077814
