19
Iteration:  2331
 C         0.000887        -0.318486        -0.297845
 C         1.562383        -0.035370        -0.054264
 C         2.132312        -0.766973         1.227082
 O         3.576576        -0.417651         1.240346
 C         4.182952         0.200954         0.159386
 C         4.050092        -0.671700        -1.115399
 C         2.621862        -0.155289        -1.304265
 C         3.026832         1.169853        -0.571306
 O         1.830284         1.309665         0.181526
 H        -0.640080        -0.967672         0.312739
 H        -0.475231         0.640885        -0.363152
 H        -0.204825        -0.813632        -1.339467
 H         1.600010        -0.205786         1.961570
 H         1.785861        -1.818788         1.373923
 H         5.142407         0.535042         0.474047
 H         4.702201        -0.270019        -2.068037
 H         4.154366        -1.748456        -0.880391
 H         1.985949        -0.151938        -2.172974
 H         3.480685         2.136035        -0.897765
