19
Iteration:  3667charge 0 multiplicity 1
 C         0.139749        -0.378409        -0.104408
 C         1.610196        -0.114520        -0.120160
 C         2.120242        -0.640821         1.253865
 O         3.487262        -0.140683         1.388381
 C         4.116148         0.175828         0.122797
 C         3.874583        -0.922303        -0.972211
 C         2.535979        -0.209873        -1.315812
 C         3.134993         1.142983        -0.726348
 O         1.908671         1.379209        -0.087664
 H        -0.270302        -1.385820        -0.229666
 H        -0.300223         0.040719         0.799185
 H        -0.194239         0.047994        -1.039816
 H         1.451777        -0.029148         1.910676
 H         2.042529        -1.707055         1.386280
 H         5.193791         0.483070         0.530257
 H         4.673339        -0.893559        -1.885898
 H         4.010350        -1.991230        -0.604059
 H         2.170110        -0.393426        -2.331048
 H         3.469003         2.074000        -1.336377
