19
Iteration:   843
 C         0.121500        -0.392787        -0.245527
 C         1.582133        -0.061449        -0.138633
 C         2.190787        -0.996019         0.963082
 O         3.538373        -0.640858         1.219127
 C         4.060625         0.246789         0.213197
 C         3.985951        -0.523639        -1.182084
 C         2.562764         0.138235        -1.326708
 C         3.074824         1.282333        -0.423819
 O         1.827923         1.316116         0.324987
 H        -0.474085         0.119716        -1.066773
 H         0.084731        -1.531728        -0.295147
 H        -0.295306         0.049955         0.739318
 H         1.468450        -0.743876         1.820904
 H         1.998242        -2.012786         0.710696
 H         4.986382         0.551946         0.763806
 H         4.531519         0.150254        -1.807406
 H         4.245190        -1.614331        -1.242000
 H         2.171494         0.326266        -2.355962
 H         3.443544         2.257898        -0.616212
