19
Iteration:  4208charge 0 multiplicity 1
 C         0.125215        -0.319557        -0.253456
 C         1.649215        -0.049002        -0.054893
 C         2.176399        -0.384751         1.309524
 O         3.540700         0.038361         1.463518
 C         4.060148         0.171079         0.097632
 C         3.819958        -1.095688        -0.780572
 C         2.557468        -0.449312        -1.203322
 C         3.064793         0.983788        -0.930513
 O         1.938984         1.399586        -0.231102
 H        -0.222619        -0.371856        -1.327003
 H         0.026974        -1.364693         0.079365
 H        -0.572890         0.280134         0.479404
 H         1.669396         0.171930         2.100465
 H         2.144913        -1.397170         1.650573
 H         5.047057         0.441461         0.273657
 H         4.575448        -1.164794        -1.563442
 H         3.918129        -2.089796        -0.423563
 H         1.946402        -0.897235        -2.034608
 H         3.321615         1.811566        -1.507335
