19
Iteration:  4743
 C         0.109057        -0.251308        -0.155427
 C         1.626851        -0.029494        -0.035493
 C         2.132889        -0.024228         1.399315
 O         3.503624         0.463528         1.429493
 C         4.082628         0.156493         0.059682
 C         3.864984        -1.330381        -0.315295
 C         2.628238        -0.713212        -1.056311
 C         3.087850         0.696990        -1.177362
 O         1.915650         1.226711        -0.667140
 H        -0.142322        -1.365622         0.132738
 H        -0.298319         0.503289         0.576238
 H        -0.227070         0.115570        -1.156420
 H         1.564421         0.598273         2.074134
 H         2.052418        -1.086553         1.796650
 H         5.077498         0.663640        -0.074777
 H         4.588624        -1.744910        -1.015358
 H         3.575078        -1.988964         0.508895
 H         2.021710        -1.116998        -1.982057
 H         3.656362         1.027941        -2.042695
