19
Iteration:  1517charge 0 multiplicity 1
 C         0.157260        -0.388407        -0.441804
 C         1.599462        -0.026372        -0.104129
 C         2.306515        -0.895654         1.110849
 O         3.508229        -0.283411         1.293868
 C         4.086642         0.201433         0.113088
 C         3.797868        -0.800435        -1.035833
 C         2.502357         0.000782        -1.301205
 C         2.998741         1.258224        -0.525965
 O         1.919217         1.303439         0.321737
 H        -0.106488         0.444722        -1.026904
 H         0.225060        -1.337683        -0.965805
 H        -0.464567        -0.279578         0.470640
 H         1.786760        -0.774810         1.975962
 H         2.344091        -2.006102         0.851336
 H         5.146863         0.428185         0.429603
 H         4.650411        -0.693516        -1.776202
 H         3.667882        -1.877466        -0.865606
 H         2.012546         0.061899        -2.396615
 H         3.472914         2.212885        -0.649630
