19
Iteration:  2748charge 0 multiplicity 1
 C         0.186389        -0.349846        -0.185609
 C         1.587505        -0.077378        -0.103568
 C         2.202980        -0.861679         1.014270
 O         3.461670        -0.273828         1.345646
 C         4.045325         0.154169         0.172717
 C         3.831626        -0.779769        -1.112888
 C         2.553594         0.052874        -1.353476
 C         3.105459         1.215498        -0.512206
 O         1.915544         1.301451         0.184443
 H        -0.510586         0.327053        -0.767377
 H         0.186027        -1.375903        -0.704519
 H        -0.171181        -0.605882         0.787220
 H         1.549590        -0.937696         1.868264
 H         2.478363        -1.873453         0.808508
 H         5.012191         0.450666         0.428292
 H         4.542585        -0.395182        -1.861918
 H         3.962761        -1.858534        -1.231454
 H         2.116362         0.155077        -2.354028
 H         3.603709         2.120588        -0.810882
