19
Iteration:   174charge 0 multiplicity 1
 C         0.072009        -0.294623        -0.284819
 C         1.565652        -0.130910        -0.082794
 C         2.306800        -1.255754         0.661412
 O         3.520637        -0.652673         1.150870
 C         4.030146         0.271379         0.178373
 C         4.004365        -0.321761        -1.296861
 C         2.570143         0.343651        -1.330184
 C         2.963710         1.324968        -0.191019
 O         1.869482         1.142101         0.646104
 H        -0.491075        -0.471164         0.633986
 H        -0.251677         0.599566        -0.988849
 H        -0.045016        -1.157835        -0.855573
 H         1.734630        -1.548492         1.486288
 H         2.449417        -2.131900         0.038052
 H         4.918109         0.640717         0.625635
 H         4.703257         0.180183        -2.033609
 H         4.182309        -1.359938        -1.477571
 H         1.936002         0.532074        -2.131669
 H         3.429641         2.318467        -0.211626
