19
Iteration:  3500charge 0 multiplicity 1
 C         0.029356        -0.335804        -0.378596
 C         1.567124        -0.114275         0.009406
 C         2.228833        -0.619442         1.350453
 O         3.512035        -0.036568         1.353395
 C         4.156822         0.169710         0.104380
 C         3.868469        -1.014342        -1.022936
 C         2.541274        -0.221789        -1.309421
 C         3.061360         1.100508        -0.702931
 O         1.933253         1.341947         0.093732
 H        -0.471698        -0.891474         0.390075
 H        -0.324168         0.686447        -0.464747
 H        -0.051476        -0.862958        -1.360074
 H         1.616629        -0.142936         2.116290
 H         2.381130        -1.704625         1.251564
 H         5.150965         0.566879         0.362302
 H         4.595736        -0.836563        -1.909023
 H         3.954487        -2.171238        -0.912339
 H         2.018167        -0.409298        -2.269787
 H         3.530151         2.002571        -1.287664
