19
Iteration:  4073
 C         0.183346        -0.347818        -0.256074
 C         1.590730        -0.017115        -0.012959
 C         2.187988        -0.533985         1.313561
 O         3.542901        -0.013268         1.374400
 C         4.121842         0.129938         0.068067
 C         3.815373        -1.057031        -0.821435
 C         2.597345        -0.321918        -1.237479
 C         3.070674         1.056785        -0.875595
 O         1.861786         1.413957        -0.104964
 H        -0.444153        -0.173116         0.631206
 H        -0.239528         0.333586        -1.053557
 H         0.135833        -1.424670        -0.479963
 H         1.605099        -0.159469         2.191586
 H         2.081289        -1.650842         1.289248
 H         5.174290         0.417066         0.307254
 H         4.491005        -1.334730        -1.629115
 H         3.605410        -2.003600        -0.330922
 H         2.006174        -0.538484        -2.164768
 H         3.269819         1.922010        -1.545867
