19
Iteration:   282charge 0 multiplicity 1
 C         0.080311        -0.394807        -0.476515
 C         1.530821        -0.092018        -0.023948
 C         2.351787        -1.197267         0.696558
 O         3.553104        -0.620999         1.190297
 C         4.134439         0.186745         0.124390
 C         3.869527        -0.385025        -1.311690
 C         2.513154         0.409629        -1.228507
 C         3.076126         1.332286        -0.133903
 O         1.820047         1.177306         0.653328
 H        -0.745347        -0.446033         0.277816
 H        -0.339086         0.646255        -0.958939
 H         0.072680        -1.173826        -1.165474
 H         1.840080        -1.504326         1.668309
 H         2.629000        -2.140268         0.108458
 H         5.114634         0.368474         0.442676
 H         4.613751         0.075573        -2.127339
 H         3.819478        -1.480329        -1.404427
 H         1.872124         0.770404        -2.036934
 H         3.441181         2.346544        -0.367541
