19
Iteration:   389
 C         0.236677        -0.394690        -0.462961
 C         1.641435        -0.119249        -0.122738
 C         2.314289        -1.166467         0.787014
 O         3.530123        -0.629199         1.193494
 C         4.129527         0.167316         0.117826
 C         3.759971        -0.440551        -1.253475
 C         2.470685         0.423169        -1.275006
 C         3.059251         1.458579        -0.167492
 O         1.828518         1.143686         0.628962
 H        -0.014862        -1.505776        -0.466170
 H        -0.508476         0.252209         0.182597
 H        -0.024978         0.052970        -1.413722
 H         1.597234        -1.356349         1.720702
 H         2.479478        -2.126805         0.449186
 H         5.176810         0.487405         0.360273
 H         4.448105        -0.273963        -2.049608
 H         3.537278        -1.478614        -1.217502
 H         1.858945         0.703487        -2.282778
 H         3.335912         2.554715        -0.233716
