19
Iteration:  2926
 C         0.049844        -0.315163        -0.345628
 C         1.569922        -0.053362         0.026534
 C         2.196590        -0.826726         1.148677
 O         3.554763        -0.502100         1.316208
 C         4.135341         0.276366         0.075619
 C         3.942735        -0.667336        -1.177755
 C         2.570578        -0.050473        -1.265546
 C         3.057544         1.224848        -0.605876
 O         1.850392         1.294164         0.275593
 H        -0.186848        -0.263142        -1.393364
 H        -0.246401        -1.347721        -0.082818
 H        -0.667364         0.468747         0.075219
 H         1.759791        -0.584475         2.142962
 H         2.088206        -2.044081         1.165706
 H         5.174707         0.664138         0.362199
 H         4.559510        -0.343429        -2.044204
 H         4.152754        -1.767450        -0.946929
 H         2.129127         0.047281        -2.226472
 H         3.447523         2.124228        -1.116510
