19
Iteration:  1546charge 0 multiplicity 1
 C         0.075266        -0.427028        -0.333563
 C         1.561725        -0.009933        -0.088680
 C         2.246647        -0.870066         1.049285
 O         3.552803        -0.392842         1.351292
 C         4.164127         0.194602         0.133170
 C         3.930692        -0.761468        -1.105039
 C         2.541325        -0.026270        -1.256502
 C         3.041787         1.200576        -0.518027
 O         1.813239         1.439099         0.199609
 H        -0.421914         0.555353        -0.337509
 H         0.006847        -0.892584        -1.404151
 H        -0.413281        -0.998253         0.488521
 H         1.665814        -0.608917         2.060039
 H         2.209211        -1.946755         0.856371
 H         5.159326         0.449583         0.494054
 H         4.657492        -0.510788        -1.865477
 H         3.806645        -1.863301        -0.899171
 H         2.164434         0.125035        -2.146891
 H         3.532370         2.038576        -0.954147
