19
Iteration:    69
 C         0.085819        -0.380256        -0.304079
 C         1.536965        -0.095579        -0.107964
 C         2.270706        -1.152463         0.829187
 O         3.654089        -0.856093         1.063414
 C         4.109029         0.186647         0.146814
 C         4.003750        -0.283199        -1.324782
 C         2.607875         0.422764        -1.281794
 C         2.936729         1.416121        -0.169574
 O         1.736216         1.198366         0.594442
 H        -0.452471        -0.360010         0.613705
 H        -0.361609         0.255686        -0.947137
 H         0.042519        -1.469498        -0.798060
 H         1.752493        -1.092906         1.839999
 H         2.106261        -2.131660         0.405217
 H         5.045920         0.529984         0.640381
 H         4.630315         0.311091        -1.942923
 H         4.050628        -1.402084        -1.586659
 H         2.072112         0.742899        -2.218688
 H         3.223090         2.443858        -0.305664
