19
Iteration:  1105
 C         0.181500        -0.476974        -0.336890
 C         1.515593        -0.004932        -0.100916
 C         2.192911        -0.893477         1.040879
 O         3.642663        -0.647990         1.235532
 C         4.115668         0.178725         0.160395
 C         3.863094        -0.554839        -1.202249
 C         2.577807         0.190680        -1.314446
 C         3.023259         1.276685        -0.392149
 O         1.792975         1.355632         0.357824
 H        -0.571926         0.343159        -0.307484
 H         0.086554        -0.879972        -1.276081
 H        -0.182002        -1.263900         0.352122
 H         1.812397        -0.740987         2.006197
 H         2.086616        -1.972551         0.769929
 H         5.135390         0.463995         0.372693
 H         4.733514        -0.239229        -1.853101
 H         3.762657        -1.663296        -1.133024
 H         2.055117         0.482083        -2.402294
 H         3.437058         2.243006        -0.601150
