19
Iteration:   278
 C         0.109521        -0.375629        -0.476616
 C         1.526796        -0.081934         0.000284
 C         2.332527        -1.225100         0.705662
 O         3.561722        -0.611563         1.208050
 C         4.114651         0.185504         0.113878
 C         3.876607        -0.367793        -1.349345
 C         2.496669         0.415042        -1.246823
 C         3.042370         1.309456        -0.117533
 O         1.853290         1.181172         0.647888
 H        -0.724222        -0.377387         0.265954
 H        -0.200493         0.425439        -1.060660
 H         0.276607        -1.259455        -1.195938
 H         1.764878        -1.567088         1.644579
 H         2.577241        -2.124277         0.123501
 H         5.150619         0.422968         0.539073
 H         4.566958        -0.042300        -2.039286
 H         3.715075        -1.458421        -1.370805
 H         1.809513         0.904319        -2.068207
 H         3.397353         2.327504        -0.395939
