19
Iteration:  4092
 C        -0.010208        -0.368619        -0.248430
 C         1.523172        -0.103696        -0.063236
 C         2.200029        -0.449861         1.338287
 O         3.573625         0.002251         1.400762
 C         4.098671         0.205159         0.084747
 C         3.887732        -1.055028        -0.872940
 C         2.498762        -0.367664        -1.284733
 C         3.150675         0.992638        -0.785345
 O         1.966324         1.384838        -0.121306
 H        -0.503115        -0.630212         0.678011
 H        -0.434153         0.530643        -0.621969
 H        -0.178104        -1.076112        -0.955898
 H         1.559561         0.092137         1.980956
 H         2.117823        -1.477784         1.535260
 H         5.144533         0.665651         0.246221
 H         4.587237        -1.079730        -1.677477
 H         4.136514        -2.062072        -0.468459
 H         2.024469        -0.527796        -2.226681
 H         3.686653         1.835335        -1.317898
