19
Iteration:   945charge 0 multiplicity 1
 C         0.064914        -0.487583        -0.263852
 C         1.541269         0.010712        -0.163181
 C         2.211980        -0.916116         1.007481
 O         3.646684        -0.705412         1.196278
 C         4.148847         0.156881         0.203950
 C         3.940344        -0.542923        -1.192899
 C         2.574164         0.186784        -1.298725
 C         3.045404         1.287040        -0.332944
 O         1.751132         1.387365         0.296549
 H        -0.374401         0.278521        -1.004589
 H         0.097405        -1.465646        -0.775502
 H        -0.532673        -0.631367         0.643021
 H         1.728577        -0.431120         1.960311
 H         2.034534        -1.916584         0.843194
 H         5.074977         0.530944         0.625653
 H         4.609810        -0.170367        -1.860261
 H         4.153453        -1.602390        -1.142031
 H         2.071960         0.592392        -2.285543
 H         3.411786         2.246795        -0.734373
