19
Iteration:  2782
 C         0.067668        -0.349223        -0.356128
 C         1.538396        -0.093028        -0.113116
 C         2.268630        -0.892454         1.063956
 O         3.615293        -0.314081         1.295446
 C         4.103007         0.190506         0.126872
 C         3.834262        -0.836932        -0.991278
 C         2.530474        -0.015677        -1.269691
 C         3.051345         1.261126        -0.557135
 O         1.898060         1.396735         0.269130
 H        -0.600653         0.492304        -0.695555
 H         0.096797        -1.113970        -1.243393
 H        -0.481180        -0.857710         0.439634
 H         1.760399        -0.887542         2.008482
 H         2.472469        -1.905924         0.716196
 H         5.099177         0.577491         0.317579
 H         4.482022        -0.522071        -1.808445
 H         3.684700        -1.892388        -0.718666
 H         2.151577         0.077572        -2.273585
 H         3.362667         2.232547        -0.939798
