19
Iteration:  3172charge 0 multiplicity 1
 C         0.108208        -0.299195        -0.228644
 C         1.546695        -0.084821        -0.050778
 C         2.159585        -0.778782         1.114507
 O         3.526725        -0.353338         1.240634
 C         4.180206         0.212990         0.095704
 C         3.943183        -0.756708        -1.076134
 C         2.531945        -0.173266        -1.316465
 C         3.100402         1.183344        -0.554710
 O         1.851912         1.331468         0.216503
 H        -0.496115        -0.155893         0.675788
 H        -0.320481         0.624087        -0.765766
 H        -0.141821        -1.186925        -0.827222
 H         1.682329        -0.350431         2.016551
 H         2.163051        -1.835200         1.032999
 H         5.043541         0.636959         0.571919
 H         4.650315        -0.345281        -1.848748
 H         4.127922        -1.804376        -0.892812
 H         1.952333        -0.291355        -2.292268
 H         3.402801         2.100246        -1.115842
