19
Iteration:  2613
 C         0.118983        -0.363181        -0.259174
 C         1.586795        -0.034453        -0.041014
 C         2.283036        -0.964219         1.032129
 O         3.562211        -0.475601         1.303220
 C         4.055870         0.170136         0.160859
 C         3.918754        -0.668838        -1.068359
 C         2.513961         0.004303        -1.357520
 C         3.032422         1.240068        -0.479591
 O         1.865809         1.420097         0.173684
 H        -0.078904        -0.581743        -1.278728
 H        -0.236419        -1.138131         0.399413
 H        -0.451217         0.586365         0.032183
 H         1.541807        -0.985832         1.844350
 H         2.169026        -1.945170         0.680058
 H         5.037425         0.738645         0.326183
 H         4.684786        -0.386434        -1.750474
 H         3.863292        -1.710967        -0.942574
 H         1.970628         0.152536        -2.364482
 H         3.499349         2.240127        -0.750986
