19
Iteration:  4269charge 0 multiplicity 1
 C         0.166665        -0.295938        -0.141328
 C         1.601981        -0.090045        -0.098100
 C         2.177106        -0.364906         1.262300
 O         3.468878         0.160493         1.434167
 C         4.051738         0.168418         0.148082
 C         3.903105        -1.094285        -0.724541
 C         2.530271        -0.502014        -1.286451
 C         3.112358         0.886232        -0.887514
 O         1.920684         1.360013        -0.260114
 H        -0.186687         0.606106         0.275593
 H        -0.280287        -0.520649        -1.107842
 H        -0.106892        -1.079385         0.537323
 H         1.462284         0.066533         1.987335
 H         2.170510        -1.502157         1.318149
 H         5.109248         0.517291         0.021948
 H         4.659547        -1.108601        -1.498983
 H         3.841929        -2.025133        -0.078506
 H         1.914246        -0.615707        -2.180458
 H         3.628294         1.547380        -1.669820
