19
Iteration:  4522
 C         0.107224        -0.355492        -0.169303
 C         1.602348        -0.076568        -0.069680
 C         2.139683        -0.215551         1.348958
 O         3.482738         0.386804         1.397749
 C         4.138478         0.139441         0.116378
 C         3.855013        -1.291317        -0.495939
 C         2.496175        -0.604915        -1.177710
 C         3.180362         0.795680        -1.057415
 O         1.922272         1.429558        -0.431647
 H        -0.155004        -1.063828         0.652471
 H        -0.493920         0.565570         0.123850
 H        -0.232202        -0.646346        -1.240150
 H         1.618953         0.412002         1.984201
 H         2.070208        -1.273851         1.586157
 H         5.144025         0.430844         0.259345
 H         4.570695        -1.485745        -1.205996
 H         3.868632        -2.233147         0.058052
 H         2.216700        -1.137701        -2.092401
 H         3.644178         1.389340        -1.875303
