19
Iteration:  4153
 C         0.068656        -0.310960        -0.149678
 C         1.563498        -0.019314        -0.062935
 C         2.179584        -0.517371         1.195420
 O         3.594158         0.027416         1.462767
 C         4.184805         0.200226         0.117852
 C         3.842326        -1.072612        -0.714012
 C         2.561825        -0.428875        -1.289696
 C         3.099800         0.955469        -0.913509
 O         1.852792         1.424129        -0.209446
 H        -0.157164        -1.321824        -0.586117
 H        -0.465970        -0.183571         0.814064
 H        -0.374491         0.494343        -0.932480
 H         1.640085        -0.203518         2.118523
 H         2.249075        -1.636915         1.179053
 H         5.152285         0.495049         0.344188
 H         4.476448        -0.964047        -1.582177
 H         3.734506        -1.883476        -0.069166
 H         2.187342        -0.731369        -2.307814
 H         3.368321         1.734747        -1.570988
