19
Iteration:  3610
 C         0.135907        -0.315586        -0.380657
 C         1.591510        -0.081936        -0.006144
 C         2.229581        -0.627264         1.305495
 O         3.561365        -0.053970         1.292770
 C         4.106078         0.224766         0.079592
 C         3.815270        -0.967663        -0.898467
 C         2.513313        -0.234779        -1.213653
 C         3.039983         1.061074        -0.759020
 O         1.924667         1.308637         0.035190
 H         0.025707        -1.166935        -1.062910
 H        -0.464773        -0.468167         0.467402
 H        -0.310213         0.634159        -0.774183
 H         1.720017        -0.271024         2.221961
 H         2.319337        -1.723854         1.352948
 H         5.105700         0.576121         0.460056
 H         4.592337        -1.087269        -1.746961
 H         3.605777        -1.942612        -0.306574
 H         2.065870        -0.466647        -2.185818
 H         3.350757         1.837326        -1.532789
