19
Iteration:  4516
 C         0.061010        -0.358028        -0.155813
 C         1.529398        -0.048694        -0.030434
 C         2.213054        -0.215728         1.383283
 O         3.486723         0.343171         1.377465
 C         4.120036         0.113754         0.140872
 C         3.824783        -1.258150        -0.482399
 C         2.615707        -0.600704        -1.188644
 C         3.156466         0.835342        -1.080693
 O         1.945095         1.412248        -0.480761
 H        -0.282445        -0.973877         0.693267
 H        -0.521106         0.538831        -0.100495
 H        -0.139250        -0.870666        -1.053362
 H         1.455809         0.438510         2.025151
 H         2.029056        -1.291775         1.740236
 H         5.184712         0.446316         0.408927
 H         4.641156        -1.442997        -1.347900
 H         3.724041        -2.269893        -0.017309
 H         2.183076        -0.991872        -2.175433
 H         3.537720         1.430158        -1.904249
