19
Iteration:  4264charge 0 multiplicity 1
 C         0.153979        -0.308174        -0.141678
 C         1.602211        -0.077562        -0.118758
 C         2.161841        -0.366240         1.293805
 O         3.490895         0.121546         1.402384
 C         4.033558         0.163810         0.147362
 C         3.884650        -1.061789        -0.689449
 C         2.542960        -0.488662        -1.287926
 C         3.139732         0.877710        -0.900221
 O         1.912337         1.371302        -0.258484
 H        -0.249461         0.725151         0.218970
 H        -0.280689        -0.661095        -1.119233
 H        -0.183706        -1.002415         0.697306
 H         1.543430         0.134213         2.043039
 H         2.193740        -1.443171         1.303156
 H         5.041173         0.534402         0.040272
 H         4.729906        -1.119365        -1.419769
 H         3.949505        -2.017876        -0.212822
 H         2.017388        -0.779528        -2.229028
 H         3.523395         1.577459        -1.604195
