19
Iteration:  1259charge 0 multiplicity 1
 C         0.175408        -0.324544        -0.423171
 C         1.568389        -0.108942        -0.069385
 C         2.319937        -0.972572         0.987133
 O         3.575612        -0.377888         1.305952
 C         4.076259         0.202728         0.157281
 C         3.827077        -0.663560        -1.126630
 C         2.513571         0.069779        -1.388250
 C         3.042047         1.236771        -0.414346
 O         1.862670         1.292356         0.428595
 H        -0.701876        -0.347967         0.355803
 H        -0.085330         0.427373        -1.138760
 H         0.110950        -1.363091        -0.898512
 H         1.590603        -0.854842         1.924503
 H         2.360970        -2.043979         0.676239
 H         5.043222         0.608516         0.453470
 H         4.487137        -0.462019        -1.997564
 H         3.688543        -1.720955        -1.188002
 H         1.783292         0.318363        -2.253263
 H         3.406052         2.219198        -0.674447
