19
Iteration:   344charge 0 multiplicity 1
 C         0.057422        -0.376081        -0.303905
 C         1.560175        -0.075151        -0.109988
 C         2.216896        -1.144588         0.775504
 O         3.574642        -0.777517         1.099401
 C         4.144426         0.184483         0.206316
 C         4.012611        -0.239046        -1.279165
 C         2.563277         0.287598        -1.242635
 C         3.026707         1.280304        -0.207359
 O         1.780505         1.264515         0.538138
 H        -0.178412        -1.324218         0.286638
 H        -0.562868         0.418061         0.035996
 H        -0.151272        -0.472742        -1.431932
 H         1.690556        -1.090129         1.783362
 H         2.059879        -2.113180         0.397458
 H         5.250620         0.425621         0.326134
 H         4.487102         0.476543        -1.859238
 H         4.378667        -1.250989        -1.490668
 H         2.044693         0.444381        -2.288207
 H         3.283255         2.358425        -0.344138
