19
Iteration:  1759charge 0 multiplicity 1
 C         0.151634        -0.294388        -0.393500
 C         1.612410        -0.131122        -0.079933
 C         2.314327        -0.948492         1.067078
 O         3.493387        -0.183220         1.357698
 C         4.110578         0.213366         0.134567
 C         3.804502        -0.808704        -1.088961
 C         2.562421        -0.040076        -1.347150
 C         3.010159         1.231909        -0.534627
 O         1.895332         1.281536         0.309419
 H        -0.455556         0.536069         0.143094
 H        -0.104828        -0.153433        -1.431469
 H        -0.315956        -1.270463        -0.196485
 H         1.706589        -0.785467         2.057376
 H         2.268303        -2.017235         0.778575
 H         5.178435         0.405409         0.368268
 H         4.663027        -0.586388        -1.839354
 H         3.744874        -1.851215        -0.773339
 H         1.910495         0.001101        -2.122926
 H         3.358434         2.171733        -1.069104
