19
Iteration:  4890
 C         0.066749        -0.306302        -0.228275
 C         1.565093        -0.048216        -0.033870
 C         2.183434         0.083772         1.442460
 O         3.525276         0.617186         1.297252
 C         4.083110         0.174661         0.088216
 C         3.781698        -1.325083        -0.221831
 C         2.509332        -0.834314        -0.988243
 C         3.198191         0.533486        -1.106712
 O         1.992726         1.256608        -0.720088
 H        -0.522242         0.284399         0.506055
 H        -0.152377         0.115067        -1.269248
 H        -0.144402        -1.463182        -0.144568
 H         1.632759         0.738160         2.184519
 H         2.137206        -0.918299         1.935817
 H         5.083428         0.596025        -0.079457
 H         4.484146        -1.615077        -0.987312
 H         3.807585        -2.029191         0.556232
 H         2.082454        -1.411108        -1.797673
 H         3.619206         1.098473        -1.919585
