19
Iteration:  3388
 C         0.075652        -0.291080        -0.361629
 C         1.573278        -0.015862         0.055244
 C         2.250729        -0.718304         1.172458
 O         3.545540        -0.214871         1.298047
 C         4.084487         0.276705         0.078041
 C         3.926534        -0.931062        -0.980776
 C         2.544757        -0.241983        -1.246586
 C         3.053338         1.116233        -0.642493
 O         1.875360         1.363958         0.122362
 H        -0.405169         0.468435        -0.975547
 H        -0.031191        -1.125938        -1.132361
 H        -0.539774        -0.456584         0.476127
 H         1.748043        -0.471332         2.147872
 H         2.359469        -1.821656         1.039558
 H         5.050537         0.645660         0.257794
 H         4.526266        -0.904191        -1.907487
 H         3.825350        -1.985440        -0.428225
 H         2.031726        -0.288803        -2.228865
 H         3.560009         1.915851        -1.193000
