19
Iteration:   399
 C         0.223723        -0.376711        -0.475518
 C         1.619555        -0.081252        -0.136684
 C         2.283760        -1.110245         0.773696
 O         3.565584        -0.575537         1.199065
 C         4.099178         0.181775         0.193437
 C         3.740418        -0.465869        -1.286330
 C         2.512560         0.430090        -1.270899
 C         3.012376         1.330571        -0.194618
 O         1.865614         1.118517         0.648512
 H        -0.004930        -1.491508        -0.548496
 H        -0.294548        -0.095661         0.427060
 H        -0.036930         0.146785        -1.418980
 H         1.748270        -1.390050         1.718389
 H         2.438088        -1.961575         0.177790
 H         5.194148         0.420244         0.401363
 H         4.453625        -0.195884        -2.011062
 H         3.570958        -1.539193        -1.326787
 H         1.922973         0.765883        -2.232745
 H         3.175150         2.433267        -0.296705
