19
Iteration:  4206charge 0 multiplicity 1
 C         0.129730        -0.325715        -0.255984
 C         1.657490        -0.058683        -0.057996
 C         2.167386        -0.388246         1.318023
 O         3.539659         0.051639         1.476231
 C         4.068510         0.162996         0.088975
 C         3.821728        -1.093847        -0.798574
 C         2.543067        -0.436283        -1.208715
 C         3.057021         0.990302        -0.942067
 O         1.952225         1.390116        -0.220757
 H        -0.162869        -0.408953        -1.275481
 H        -0.018020        -1.325560         0.133423
 H        -0.547810         0.303529         0.402321
 H         1.604045         0.154042         2.132627
 H         2.135009        -1.397005         1.628642
 H         5.033437         0.447284         0.339826
 H         4.639872        -1.127275        -1.592343
 H         3.830080        -2.142185        -0.323781
 H         1.906074        -0.909071        -2.039545
 H         3.339442         1.836188        -1.558770
