19
Iteration:  2895charge 0 multiplicity 1
 C         0.115407        -0.349760        -0.299564
 C         1.627841        -0.140073        -0.111451
 C         2.334722        -0.862324         0.977887
 O         3.464666        -0.263197         1.400893
 C         4.070421         0.203262         0.145743
 C         3.813360        -0.786027        -1.202688
 C         2.543846         0.020504        -1.307013
 C         3.103707         1.156909        -0.545179
 O         1.869623         1.312670         0.335598
 H        -0.147091        -0.363897        -1.363925
 H        -0.407575        -1.128281         0.273964
 H        -0.315743         0.620298         0.204061
 H         1.628275        -0.837306         1.832066
 H         2.535320        -1.932454         0.709970
 H         5.127924         0.548402         0.364903
 H         4.498897        -0.314586        -1.873742
 H         3.771376        -1.884067        -0.968522
 H         2.110325         0.157568        -2.277884
 H         3.500428         2.121412        -0.898971
