19
Iteration:  4646charge 0 multiplicity 1
 C         0.082596        -0.378555        -0.201685
 C         1.544271        -0.004894        -0.055847
 C         2.181895        -0.086417         1.424795
 O         3.523666         0.444602         1.363239
 C         4.138494         0.138477         0.081911
 C         3.765965        -1.347611        -0.380058
 C         2.614150        -0.666560        -1.099476
 C         3.126448         0.754769        -1.039982
 O         1.944664         1.357608        -0.614696
 H        -0.620378         0.550512        -0.241072
 H         0.069851        -0.963481        -1.166362
 H        -0.183564        -0.933975         0.728983
 H         1.616877         0.589764         2.161009
 H         2.299143        -1.168646         1.758947
 H         5.203443         0.521324         0.250175
 H         4.483270        -1.799461        -1.111288
 H         3.567350        -2.024539         0.407225
 H         2.120557        -1.185820        -2.035987
 H         3.470703         1.382403        -1.840783
