19
Iteration:  4666charge 0 multiplicity 1
 C         0.158560        -0.339623        -0.198136
 C         1.610024        -0.051335        -0.084892
 C         2.154473        -0.051200         1.322336
 O         3.535532         0.444717         1.416847
 C         4.076267         0.253059         0.133288
 C         3.760717        -1.322507        -0.418724
 C         2.548494        -0.706144        -1.051051
 C         3.194048         0.689453        -1.120791
 O         1.893798         1.281978        -0.540694
 H        -0.352887         0.505149         0.466230
 H        -0.070258        -0.079740        -1.255256
 H        -0.174402        -1.330018         0.274519
 H         1.592098         0.692913         1.884246
 H         2.174257        -1.139195         1.766335
 H         5.129625         0.623720         0.067531
 H         4.531188        -1.767916        -1.041780
 H         3.601515        -2.035894         0.370507
 H         1.850916        -1.078009        -1.897372
 H         3.783172         1.031083        -1.990562
