19
Iteration:  3586charge 0 multiplicity 1
 C         0.057443        -0.372289        -0.169439
 C         1.628421        -0.108044        -0.099116
 C         2.169809        -0.600163         1.191898
 O         3.514859        -0.000037         1.433220
 C         4.089955         0.137165         0.075162
 C         3.861623        -1.010596        -0.989796
 C         2.608296        -0.234275        -1.340337
 C         3.101426         1.060602        -0.721391
 O         1.912278         1.400500         0.002205
 H        -0.218053        -1.384373        -0.528381
 H        -0.474747        -0.195962         0.801549
 H        -0.437886         0.431346        -0.782157
 H         1.428570        -0.433205         2.001616
 H         2.267681        -1.661233         1.194429
 H         5.020242         0.558759         0.343192
 H         4.719818        -0.802741        -1.621828
 H         3.886662        -2.062740        -0.551671
 H         2.169685        -0.543035        -2.297773
 H         3.566601         1.918928        -1.224820
