19
Iteration:  1796
 C         0.043518        -0.433521        -0.294676
 C         1.578050        -0.020343        -0.086961
 C         2.184664        -0.790003         1.021088
 O         3.582356        -0.405205         1.342045
 C         4.142929         0.164831         0.194113
 C         3.898265        -0.695934        -1.065380
 C         2.563985         0.015965        -1.300672
 C         3.050526         1.185429        -0.527830
 O         1.859054         1.390590         0.180354
 H        -0.471097         0.240156         0.363938
 H        -0.247870        -0.373207        -1.395892
 H        -0.039358        -1.354399         0.263172
 H         1.536663        -0.605628         1.767122
 H         2.359269        -1.944929         0.856471
 H         5.111260         0.446505         0.468012
 H         4.637369        -0.606859        -1.875457
 H         3.887715        -1.836220        -0.937533
 H         2.169398        -0.184727        -2.328924
 H         3.414478         2.031944        -1.140334
