19
Iteration:   623
 C         0.046834        -0.377264        -0.394051
 C         1.542510        -0.039337        -0.078590
 C         2.267311        -1.109697         0.885300
 O         3.574127        -0.565792         1.208411
 C         4.119854         0.273543         0.173682
 C         3.928791        -0.559115        -1.175489
 C         2.572375         0.242249        -1.295489
 C         3.042101         1.299377        -0.314125
 O         1.824017         1.256504         0.483349
 H        -0.371494        -0.787014         0.496007
 H        -0.483847         0.542779        -0.528550
 H        -0.064335        -0.968925        -1.314450
 H         1.610284        -1.369240         1.877446
 H         2.417535        -2.091075         0.296940
 H         5.158095         0.629000         0.407215
 H         4.633613        -0.209154        -1.912240
 H         3.772967        -1.661134        -1.243643
 H         2.201902         0.552394        -2.422897
 H         3.480661         2.237945        -0.653874
