19
Iteration:  4038
 C         0.002731        -0.397848        -0.198110
 C         1.546640         0.007248        -0.060609
 C         2.164203        -0.579700         1.294572
 O         3.560114        -0.001890         1.381332
 C         4.112227         0.144619         0.139797
 C         3.856983        -1.020577        -0.910042
 C         2.575673        -0.294252        -1.278025
 C         3.115096         1.052997        -0.815007
 O         1.951667         1.404170        -0.117706
 H        -0.550608         0.501908         0.114348
 H        -0.305392        -0.865311        -1.123149
 H        -0.229839        -1.130606         0.505285
 H         1.627965        -0.353039         2.207711
 H         2.336564        -1.671258         1.140698
 H         5.236198         0.448808         0.292559
 H         4.550160        -1.037235        -1.713990
 H         3.683846        -1.939049        -0.324368
 H         2.297988        -0.509524        -2.299249
 H         3.647122         1.874540        -1.426886
