19
Iteration:   974
 C         0.147527        -0.421646        -0.192512
 C         1.613688        -0.071044        -0.097276
 C         2.156292        -0.981576         0.974969
 O         3.535009        -0.635409         1.187754
 C         4.103297         0.191021         0.182932
 C         3.959903        -0.493878        -1.228464
 C         2.586180         0.187005        -1.345965
 C         3.040283         1.303937        -0.343373
 O         1.799245         1.337329         0.307076
 H        -0.114344        -0.073655        -1.268246
 H        -0.055434        -1.480334        -0.234385
 H        -0.588047         0.002114         0.553029
 H         1.594857        -0.770917         1.888839
 H         2.016661        -2.136007         0.727750
 H         5.035782         0.510252         0.638154
 H         4.789768        -0.145434        -2.013570
 H         4.173208        -1.651585        -1.185925
 H         2.076809         0.322779        -2.240683
 H         3.398898         2.310352        -0.513424
