19
Iteration:  2402charge 0 multiplicity 1
 C         0.069225        -0.442020        -0.296269
 C         1.522308        -0.146992        -0.090381
 C         2.272807        -0.858191         0.999101
 O         3.497193        -0.228025         1.370832
 C         4.083281         0.169529         0.143918
 C         3.807164        -0.805176        -1.038288
 C         2.541269         0.018208        -1.414504
 C         3.181511         1.246239        -0.503161
 O         1.958453         1.399797         0.221688
 H        -0.359116        -0.962313         0.610717
 H        -0.600486         0.481873        -0.459201
 H        -0.208355        -1.170181        -1.012664
 H         1.612638        -0.725678         1.932915
 H         2.390667        -1.925964         0.977302
 H         5.176659         0.505344         0.305540
 H         4.553384        -0.610322        -1.680899
 H         3.665339        -1.892627        -0.836407
 H         2.019314        -0.061994        -2.408138
 H         3.695568         2.133290        -0.842134
