19
Iteration:   320charge 0 multiplicity 1
 C         0.072511        -0.327525        -0.236024
 C         1.626857        -0.142477        -0.081101
 C         2.260903        -1.168819         0.788139
 O         3.527440        -0.810570         1.099036
 C         4.022638         0.275983         0.222545
 C         4.068369        -0.276923        -1.305056
 C         2.584758         0.393724        -1.330887
 C         3.029887         1.321826        -0.286439
 O         1.766337         1.159166         0.556529
 H        -0.351296        -1.023393         0.514444
 H        -0.300154         0.601421        -0.152782
 H        -0.153402        -0.569270        -1.388862
 H         1.654115        -1.179614         1.667947
 H         2.087957        -2.106492         0.344968
 H         4.996735         0.706469         0.727916
 H         4.758141         0.114700        -1.981675
 H         4.144230        -1.391177        -1.233806
 H         2.031018         0.674561        -2.263830
 H         3.403189         2.355534        -0.299633
