19
Iteration:  4147
 C         0.090545        -0.273213        -0.156539
 C         1.554808        -0.014588        -0.057461
 C         2.219235        -0.545924         1.277197
 O         3.571759        -0.017978         1.415366
 C         4.109249         0.227314         0.121285
 C         3.847313        -1.036421        -0.740307
 C         2.578619        -0.389755        -1.266607
 C         3.081033         0.921292        -0.890130
 O         1.865934         1.415883        -0.249127
 H        -0.086095        -1.337593        -0.384898
 H        -0.398657        -0.045979         0.787007
 H        -0.311823         0.231981        -0.949583
 H         1.575994        -0.184789         2.065644
 H         2.157302        -1.653639         1.213543
 H         5.176757         0.657682         0.364825
 H         4.687412        -1.004575        -1.497126
 H         3.699958        -1.991979        -0.081422
 H         2.200443        -0.593826        -2.239438
 H         3.490742         1.594782        -1.728413
