19
Iteration:   535
 C         0.157234        -0.367105        -0.432138
 C         1.592419        -0.091949        -0.104580
 C         2.302429        -1.128819         0.794640
 O         3.545815        -0.597014         1.241598
 C         4.130576         0.240480         0.117554
 C         3.815058        -0.490575        -1.233713
 C         2.511341         0.295947        -1.234671
 C         3.036911         1.317079        -0.258428
 O         1.866601         1.262622         0.551103
 H        -0.414427         0.458534        -0.747025
 H         0.139088        -0.983716        -1.398308
 H        -0.349215        -0.896121         0.381582
 H         1.651119        -1.325252         1.732196
 H         2.409632        -2.097581         0.363128
 H         5.123178         0.458496         0.508716
 H         4.548262        -0.296376        -2.014002
 H         3.562753        -1.535178        -1.081346
 H         1.847888         0.580126        -2.163029
 H         3.298461         2.371295        -0.364165
