19
Iteration:  1204charge 0 multiplicity 1
 C         0.065887        -0.453668        -0.256452
 C         1.583808        -0.061200        -0.118825
 C         2.179264        -0.887415         0.996445
 O         3.629497        -0.675097         1.206040
 C         4.071071         0.226987         0.183764
 C         4.039725        -0.583468        -1.135865
 C         2.550027         0.146582        -1.340457
 C         3.061119         1.260787        -0.365052
 O         1.792392         1.406151         0.279179
 H        -0.574792         0.355040         0.235605
 H        -0.450816        -0.616733        -1.107547
 H        -0.164960        -1.413304         0.259510
 H         1.604234        -0.655786         1.925966
 H         2.096478        -1.918133         0.640444
 H         4.944333         0.680675         0.611149
 H         4.652549        -0.279229        -2.012053
 H         4.036035        -1.645110        -1.149087
 H         1.964446         0.525977        -2.360618
 H         3.500081         2.168792        -0.697143
