19
Iteration:  2525charge 0 multiplicity 1
 C         0.099324        -0.429014        -0.280203
 C         1.557001        -0.003114        -0.123237
 C         2.293144        -0.932253         0.982348
 O         3.530982        -0.347144         1.372353
 C         4.102403         0.184480         0.130731
 C         3.856937        -0.829749        -1.080381
 C         2.539967         0.063678        -1.282180
 C         3.115379         1.198301        -0.498713
 O         1.835665         1.473706         0.246335
 H        -0.533127         0.312525        -0.779419
 H        -0.071822        -1.327962        -0.850679
 H        -0.530283        -0.572491         0.703761
 H         1.731901        -1.117703         1.942905
 H         2.501146        -1.882988         0.483289
 H         5.226511         0.465014         0.293426
 H         4.636920        -0.560209        -1.784738
 H         3.653309        -1.878806        -1.131705
 H         2.139534         0.056944        -2.368404
 H         3.572447         2.151858        -0.908152
