19
Iteration:  4833
 C        -0.015815        -0.195008        -0.087388
 C         1.525849        -0.043799        -0.104665
 C         2.167774         0.063276         1.324752
 O         3.561541         0.457251         1.422524
 C         4.164713         0.165665         0.161335
 C         3.906856        -1.283946        -0.296008
 C         2.656575        -0.818713        -1.070529
 C         3.138952         0.537615        -1.124051
 O         1.870293         1.284565        -0.752203
 H        -0.456900         0.398859        -0.963312
 H        -0.304998        -1.323841        -0.249776
 H        -0.529681         0.030095         0.913007
 H         1.617139         0.906091         1.815439
 H         1.962207        -0.903165         1.804238
 H         5.127634         0.678982         0.169381
 H         4.692247        -1.789155        -0.870369
 H         3.633131        -1.873380         0.530895
 H         2.208242        -1.406641        -1.934209
 H         3.572152         1.019657        -1.942052
