19
Iteration:  1252
 C         0.194291        -0.374098        -0.446160
 C         1.595015        -0.121431        -0.027037
 C         2.239324        -0.978507         1.059427
 O         3.572518        -0.414544         1.327400
 C         4.026030         0.224910         0.128040
 C         3.843661        -0.638071        -1.234943
 C         2.489703         0.139121        -1.332948
 C         3.036350         1.224756        -0.415173
 O         1.878549         1.319424         0.419659
 H        -0.465321        -0.162714         0.330664
 H        -0.163101         0.210842        -1.315736
 H         0.073585        -1.394795        -0.699923
 H         1.653073        -0.810635         1.872289
 H         2.382184        -2.058097         0.845086
 H         5.090362         0.461182         0.346084
 H         4.612549        -0.415341        -1.993120
 H         3.698849        -1.782604        -1.196889
 H         2.280535         0.288210        -2.456249
 H         3.489421         2.155609        -0.773532
