19
Iteration:  3247
 C         0.055311        -0.405184        -0.322751
 C         1.573020        -0.135329        -0.065751
 C         2.236254        -0.769325         1.117095
 O         3.527445        -0.151990         1.314361
 C         4.059624         0.150570         0.121139
 C         3.892586        -0.831675        -1.064830
 C         2.501954        -0.071017        -1.386885
 C         3.108226         1.147009        -0.604730
 O         1.989322         1.369205         0.293595
 H        -0.319018        -1.394745         0.062279
 H        -0.679285         0.330087         0.183553
 H        -0.070725        -0.293842        -1.384418
 H         1.575030        -0.407149         1.958821
 H         2.408842        -1.900980         1.123051
 H         5.061895         0.417155         0.371711
 H         4.572665        -0.780468        -1.960332
 H         3.601002        -1.827252        -0.735220
 H         1.785027         0.013043        -2.239996
 H         3.642827         2.044724        -0.952482
