19
Iteration:  3522
 C         0.083422        -0.285793        -0.268196
 C         1.551289        -0.080745        -0.092178
 C         2.173689        -0.624359         1.231006
 O         3.604575        -0.140240         1.386333
 C         4.107037         0.194188         0.097892
 C         3.909889        -0.889752        -0.913758
 C         2.510142        -0.265427        -1.283190
 C         3.088717         1.080015        -0.684546
 O         1.874706         1.319792         0.022978
 H        -0.293499        -1.075531         0.359140
 H        -0.444955         0.656441        -0.182380
 H        -0.085440        -0.593890        -1.338971
 H         1.615443         0.006463         1.930572
 H         2.196467        -1.730510         1.351988
 H         5.144458         0.565802         0.153897
 H         4.485849        -0.865218        -1.895948
 H         4.083531        -1.964915        -0.522576
 H         2.061170        -0.467927        -2.271697
 H         3.443534         1.754353        -1.504180
