19
Iteration:   489
 C         0.081311        -0.386336        -0.344463
 C         1.554512        -0.115350        -0.120079
 C         2.209678        -1.089491         0.818041
 O         3.591894        -0.643510         1.177330
 C         4.183679         0.216455         0.185162
 C         3.945984        -0.430919        -1.318096
 C         2.514256         0.316338        -1.271519
 C         3.091573         1.326271        -0.189804
 O         1.780829         1.200787         0.531956
 H        -0.147304        -0.182453        -1.367895
 H        -0.365012        -1.442447        -0.302316
 H        -0.380804         0.292558         0.248729
 H         1.585265        -1.025309         1.822931
 H         2.124675        -2.104886         0.506887
 H         5.153632         0.442754         0.626550
 H         4.396219         0.173505        -2.109748
 H         4.167162        -1.435000        -1.362802
 H         2.009894         0.686171        -2.340174
 H         3.485723         2.311167        -0.497982
