19
Iteration:  4283
 C         0.094736        -0.297401        -0.139126
 C         1.602484        -0.061821        -0.067655
 C         2.180373        -0.463895         1.303441
 O         3.438072         0.245715         1.452677
 C         4.157449         0.208532         0.096327
 C         3.833182        -1.202865        -0.774371
 C         2.592646        -0.466056        -1.201565
 C         3.127148         0.925971        -0.935974
 O         1.922316         1.368373        -0.290721
 H        -0.476687         0.271453         0.579494
 H        -0.147618        -0.049321        -1.117659
 H        -0.166821        -1.367200        -0.004523
 H         1.503527         0.030554         2.091859
 H         2.300792        -1.559722         1.493345
 H         5.075571         0.587812         0.438862
 H         4.581909        -1.406878        -1.654784
 H         3.801681        -2.238040        -0.296099
 H         2.188345        -0.787555        -2.227140
 H         3.480836         1.693624        -1.609435
