19
Iteration:  3064
 C         0.089811        -0.325826        -0.206817
 C         1.522515        -0.124130        -0.083505
 C         2.180762        -0.764811         1.139365
 O         3.524166        -0.421600         1.365471
 C         4.166259         0.137293         0.146341
 C         3.981748        -0.677377        -1.224734
 C         2.601004        -0.082383        -1.339878
 C         3.067241         1.165881        -0.554426
 O         1.811966         1.376050         0.181945
 H        -0.294233         0.673876        -0.040370
 H        -0.111429        -0.639782        -1.278692
 H        -0.359110        -0.947014         0.573433
 H         1.495402        -0.416465         1.943130
 H         1.981664        -1.939262         1.154263
 H         5.095493         0.630451         0.535105
 H         4.520530        -0.216549        -2.111389
 H         4.231696        -1.686283        -0.949960
 H         2.093985        -0.004644        -2.365292
 H         3.618483         2.014455        -1.062045
