19
Iteration:  1941charge 0 multiplicity 1
 C         0.102812        -0.414181        -0.242919
 C         1.512077        -0.046929        -0.064932
 C         2.150235        -0.710559         1.157827
 O         3.544143        -0.510582         1.239321
 C         4.139743         0.154786         0.189146
 C         3.982141        -0.682472        -1.083665
 C         2.670219        -0.069906        -1.322829
 C         3.087611         1.190934        -0.529477
 O         1.755286         1.446088         0.109862
 H        -0.304731        -0.054413         0.723614
 H        -0.277160         0.106990        -1.107607
 H        -0.040363        -1.533024        -0.353564
 H         1.756464        -0.372702         2.043911
 H         1.988343        -1.875019         1.022919
 H         5.182876         0.497624         0.554307
 H         4.729550        -0.352947        -1.798388
 H         4.067098        -1.848833        -1.008738
 H         2.062042        -0.078879        -2.324608
 H         3.267948         2.172206        -0.909664
