19
Iteration:  3276charge 0 multiplicity 1
 C         0.142064        -0.264696        -0.344790
 C         1.588279        -0.069711         0.031374
 C         2.209675        -0.802742         1.167714
 O         3.640799        -0.252869         1.304407
 C         4.119650         0.189343         0.148327
 C         3.897894        -0.833022        -1.031752
 C         2.536858        -0.167410        -1.282470
 C         3.029242         1.173100        -0.682755
 O         1.775576         1.373092         0.156410
 H        -0.064401        -1.261993        -0.777638
 H        -0.476631        -0.030670         0.479134
 H        -0.051638         0.517296        -1.056808
 H         1.774820        -0.858981         2.151668
 H         2.308810        -1.892319         1.000653
 H         5.149041         0.449462         0.430014
 H         4.405817        -0.722390        -1.953535
 H         3.658563        -1.888667        -0.731533
 H         1.898724        -0.263687        -2.109119
 H         3.416586         2.026081        -1.200798
