19
Iteration:  3989
 C         0.042717        -0.248985        -0.244253
 C         1.588585        -0.054322         0.003664
 C         2.205886        -0.598614         1.322300
 O         3.562182        -0.217716         1.410911
 C         4.100450         0.271269         0.096358
 C         3.964815        -0.977278        -0.876852
 C         2.541925        -0.325210        -1.280938
 C         3.057132         1.049364        -0.881561
 O         1.889790         1.391240        -0.117391
 H        -0.305655         0.460499        -0.970046
 H        -0.064643        -1.319592        -0.418335
 H        -0.606981        -0.097757         0.678070
 H         1.617268        -0.129641         2.145022
 H         2.103625        -1.664541         1.349509
 H         5.027454         0.670767         0.333492
 H         4.661547        -0.665857        -1.699429
 H         3.876003        -1.930956        -0.378012
 H         2.017806        -0.630586        -2.225740
 H         3.392189         1.830264        -1.512623
