19
Iteration:  2933
 C         0.055642        -0.339391        -0.325105
 C         1.566294        -0.109636        -0.037925
 C         2.202438        -0.798953         1.171562
 O         3.589822        -0.561784         1.267674
 C         4.120577         0.303971         0.106873
 C         3.967226        -0.658303        -1.118416
 C         2.539361        -0.058192        -1.256571
 C         3.054348         1.219099        -0.583315
 O         1.850834         1.363126         0.267818
 H        -0.021829        -0.121063        -1.406811
 H        -0.321154        -1.367654        -0.109765
 H        -0.516100         0.365958         0.213625
 H         1.655439        -0.427405         2.050247
 H         2.022527        -1.808479         0.949491
 H         4.996173         0.788414         0.504533
 H         4.487989        -0.532549        -2.092847
 H         4.078765        -1.729919        -1.061189
 H         1.933784        -0.026173        -2.211186
 H         3.530481         2.017933        -1.210943
