19
Iteration:   454
 C         0.145035        -0.327856        -0.244375
 C         1.594551        -0.087005        -0.142329
 C         2.204502        -1.106200         0.838980
 O         3.602024        -0.836879         1.076448
 C         4.043077         0.266640         0.209255
 C         4.059926        -0.329840        -1.230917
 C         2.539384         0.252067        -1.322753
 C         2.998177         1.290024        -0.256419
 O         1.744109         1.273104         0.515195
 H        -0.080072        -0.535378        -1.315461
 H        -0.267584        -0.970882         0.473675
 H        -0.323677         0.636924        -0.175609
 H         1.697855        -1.006884         1.836167
 H         2.104474        -2.122963         0.426519
 H         4.917054         0.622681         0.788264
 H         4.654870         0.241226        -1.915442
 H         4.367321        -1.350045        -1.307813
 H         2.040161         0.329506        -2.383050
 H         3.297498         2.353191        -0.434332
