19
Iteration:  4197charge 0 multiplicity 1
 C         0.177745        -0.380203        -0.226942
 C         1.596971        -0.066257        -0.022234
 C         2.140447        -0.408406         1.388190
 O         3.514200         0.104092         1.460196
 C         4.126361         0.147381         0.097683
 C         3.845525        -1.106468        -0.822264
 C         2.511022        -0.423702        -1.280849
 C         3.080209         1.008522        -0.977180
 O         1.961801         1.368488        -0.164628
 H        -0.023045        -0.429064        -1.330833
 H        -0.200555        -1.247492         0.316697
 H        -0.431449         0.602605         0.053768
 H         1.431854         0.077102         2.064178
 H         2.068371        -1.487257         1.455141
 H         5.090125         0.505441         0.244837
 H         4.588808        -1.108939        -1.609776
 H         3.626641        -1.928885        -0.234006
 H         1.922459        -0.715268        -2.207387
 H         3.540790         1.622623        -1.693945
