19
Iteration:   504charge 0 multiplicity 1
 C         0.176124        -0.356329        -0.433558
 C         1.603685        -0.071798        -0.121482
 C         2.291527        -1.081852         0.825109
 O         3.540445        -0.591642         1.229553
 C         4.069936         0.149978         0.120908
 C         3.846760        -0.406855        -1.281818
 C         2.538733         0.284659        -1.270905
 C         3.014574         1.260103        -0.219395
 O         1.844021         1.238107         0.572382
 H        -0.184859         0.098861        -1.383963
 H         0.085821        -1.481853        -0.346246
 H        -0.533054        -0.089696         0.483951
 H         1.708781        -1.257982         1.732914
 H         2.456847        -2.035588         0.317395
 H         5.100768         0.455738         0.387198
 H         4.650811        -0.003287        -1.931954
 H         3.743640        -1.554671        -1.476146
 H         1.976723         0.577975        -2.103039
 H         3.310054         2.294640        -0.253747
