19
Iteration:  4573
 C         0.024936        -0.255417        -0.237236
 C         1.581321        -0.047261        -0.065798
 C         2.164095        -0.167856         1.367797
 O         3.573588         0.324756         1.433007
 C         4.128427         0.198885         0.085546
 C         3.902045        -1.212560        -0.501903
 C         2.554461        -0.684125        -1.028581
 C         3.093781         0.744690        -0.998687
 O         1.902485         1.327153        -0.573355
 H        -0.294486        -0.982857        -0.918788
 H        -0.285788        -0.680807         0.717831
 H        -0.420698         0.700731        -0.371982
 H         1.567639         0.516841         2.014649
 H         2.067734        -1.273723         1.609253
 H         5.148021         0.598726         0.213713
 H         4.593944        -1.639353        -1.309674
 H         3.835447        -2.043776         0.273076
 H         2.234354        -1.120828        -1.920161
 H         3.514788         1.287187        -1.867620
