19
Iteration:  1266charge 0 multiplicity 1
 C         0.113331        -0.320012        -0.410952
 C         1.603175        -0.079990        -0.088639
 C         2.318792        -0.956039         0.944321
 O         3.563912        -0.373814         1.303854
 C         4.123789         0.189250         0.149663
 C         3.819130        -0.691807        -1.101916
 C         2.508112         0.076110        -1.348796
 C         3.017780         1.250245        -0.424071
 O         1.851167         1.260352         0.415475
 H        -0.596397        -0.434096         0.455041
 H        -0.112037         0.612632        -1.063129
 H         0.112815        -1.192145        -1.118758
 H         1.782359        -1.046376         1.944734
 H         2.431698        -1.978866         0.591995
 H         5.093321         0.642450         0.366024
 H         4.529751        -0.417480        -1.881874
 H         3.822980        -1.787063        -0.943737
 H         1.852894         0.158860        -2.134263
 H         3.355868         2.331209        -0.679011
