19
Iteration:  1340
 C         0.080429        -0.429568        -0.278437
 C         1.533699        -0.124872        -0.071072
 C         2.196838        -0.823229         1.069214
 O         3.533164        -0.508788         1.291181
 C         4.073265         0.143183         0.155098
 C         4.018564        -0.616517        -1.184091
 C         2.628855         0.084055        -1.304690
 C         3.097543         1.257317        -0.441324
 O         1.800903         1.372636         0.205562
 H        -0.063391        -1.447772        -0.277654
 H        -0.441379        -0.013009         0.618636
 H        -0.244844         0.117922        -1.108927
 H         1.651027        -0.615323         1.938079
 H         2.102512        -1.973882         0.863072
 H         5.078529         0.417954         0.541143
 H         4.645807        -0.277965        -1.996006
 H         3.906241        -1.734769        -1.112179
 H         1.936309         0.300020        -2.310246
 H         3.497882         2.206678        -0.767861
