19
Iteration:   226charge 0 multiplicity 1
 C         0.011722        -0.438528        -0.396880
 C         1.486148        -0.051354        -0.095324
 C         2.232943        -1.107694         0.894579
 O         3.657699        -0.821775         1.048130
 C         4.145476         0.252289         0.160414
 C         3.969027        -0.273986        -1.328538
 C         2.676482         0.455276        -1.290833
 C         3.042966         1.264094        -0.089243
 O         1.716142         1.187588         0.575270
 H        -0.447253        -0.034759         0.596030
 H        -0.470470         0.025026        -1.396630
 H        -0.049323        -1.489486        -0.457433
 H         1.689866        -1.335700         1.906555
 H         2.206126        -2.096070         0.324954
 H         5.062306         0.553733         0.638982
 H         4.560622         0.249840        -2.235747
 H         3.936843        -1.389597        -1.481699
 H         2.162242         0.875553        -2.208547
 H         3.554127         2.261235        -0.230209
