19
Iteration:   333
 C         0.095225        -0.351160        -0.269313
 C         1.558759        -0.159306        -0.095916
 C         2.155195        -1.224782         0.859840
 O         3.556034        -0.773853         1.038889
 C         4.075493         0.216428         0.178770
 C         4.030395        -0.245747        -1.265022
 C         2.639082         0.320274        -1.306570
 C         2.990293         1.367999        -0.188451
 O         1.824885         1.262104         0.504528
 H        -0.304118        -1.231115         0.367637
 H        -0.376059         0.536358         0.045813
 H        -0.314408        -0.650567        -1.275352
 H         1.698632        -1.336382         1.895425
 H         2.256927        -2.167613         0.406176
 H         5.018898         0.527123         0.775487
 H         4.665355         0.353932        -1.829308
 H         4.194162        -1.275595        -1.605283
 H         2.107074         0.641274        -2.305845
 H         3.388429         2.380760        -0.453884
