19
Iteration:  2215
 C         0.154628        -0.341803        -0.358963
 C         1.596268        -0.068589        -0.019228
 C         2.166326        -0.734882         1.196936
 O         3.572943        -0.539081         1.276454
 C         4.137810         0.228859         0.145665
 C         4.034803        -0.655850        -1.095183
 C         2.550075        -0.153664        -1.323568
 C         2.988422         1.159247        -0.528475
 O         1.776412         1.416417         0.173569
 H        -0.404622         0.422927         0.239218
 H         0.004599        -0.029612        -1.379580
 H        -0.223860        -1.244633        -0.002688
 H         1.548715        -0.352705         2.155065
 H         1.862641        -1.810012         1.118995
 H         5.168952         0.640496         0.343625
 H         4.467243        -0.447755        -2.031749
 H         4.143853        -1.776363        -0.860132
 H         1.921301         0.027717        -2.223545
 H         3.347422         2.015516        -1.093309
