19
Iteration:  4471charge 0 multiplicity 1
 C         0.089432        -0.317400        -0.181019
 C         1.626744        -0.058516        -0.066966
 C         2.128254        -0.155559         1.325192
 O         3.517574         0.174812         1.366127
 C         4.092414         0.155833         0.151605
 C         3.882221        -1.155591        -0.554017
 C         2.601545        -0.602071        -1.107563
 C         3.048972         0.826693        -1.035570
 O         1.926425         1.398865        -0.431684
 H        -0.467687         0.368323         0.480564
 H        -0.290527        -0.204513        -1.140624
 H        -0.056652        -1.356366         0.106913
 H         1.666356         0.606802         2.144529
 H         1.903324        -1.263955         1.698326
 H         5.176839         0.438873         0.210423
 H         4.773448        -1.364486        -1.330300
 H         3.897909        -2.117102         0.017580
 H         2.161660        -1.230412        -1.978453
 H         3.460946         1.332201        -1.889613
