19
Iteration:  3955
 C         0.094404        -0.360743        -0.316956
 C         1.604598        -0.001965        -0.013830
 C         2.273655        -0.546568         1.194854
 O         3.528922        -0.055066         1.390359
 C         4.115691         0.196825         0.080202
 C         3.803156        -1.087924        -0.905886
 C         2.508648        -0.260851        -1.225797
 C         3.104014         1.077685        -0.773644
 O         1.880494         1.386511         0.014160
 H        -0.212804        -0.700341        -1.272129
 H        -0.143513        -1.297732         0.205024
 H        -0.496980         0.493545         0.135020
 H         1.589961        -0.345950         2.060041
 H         2.365985        -1.588150         1.195913
 H         5.093308         0.502975         0.250664
 H         4.657292        -1.115864        -1.654554
 H         3.844122        -2.137444        -0.678291
 H         2.110256        -0.487990        -2.227211
 H         3.554835         1.881625        -1.285557
