19
Iteration:  1983
 C         0.102562        -0.334892        -0.336040
 C         1.581251        -0.079898        -0.049791
 C         2.187314        -0.809625         1.193669
 O         3.537670        -0.392422         1.283504
 C         4.124631         0.153980         0.110112
 C         3.995647        -0.696162        -1.082972
 C         2.569382        -0.061958        -1.294303
 C         3.010662         1.238877        -0.564121
 O         1.825111         1.344939         0.227388
 H        -0.577407         0.300565         0.180621
 H        -0.082513        -0.200693        -1.399527
 H        -0.445687        -1.301952        -0.052894
 H         1.562988        -0.534073         2.100402
 H         2.088325        -1.852142         0.944926
 H         5.108054         0.505737         0.406421
 H         4.603965        -0.418306        -1.954685
 H         4.192466        -1.894322        -1.038667
 H         2.279361        -0.125061        -2.388988
 H         3.571426         2.046475        -1.013746
