19
Iteration:  2877charge 0 multiplicity 1
 C         0.114162        -0.347880        -0.219598
 C         1.593008        -0.033061        -0.124209
 C         2.224999        -1.000478         0.985406
 O         3.544930        -0.303864         1.365516
 C         4.129544         0.187391         0.161822
 C         3.839276        -0.779099        -1.021195
 C         2.537367         0.064078        -1.401668
 C         3.050038         1.304017        -0.521940
 O         1.885743         1.326376         0.226399
 H        -0.219581        -0.536670        -1.283996
 H        -0.028878        -1.337027         0.198131
 H        -0.570377         0.346528         0.179071
 H         1.759335        -1.225005         1.953550
 H         2.459604        -1.963903         0.574541
 H         5.099484         0.561341         0.320359
 H         4.575990        -0.811541        -1.876280
 H         3.541075        -1.785366        -0.816019
 H         2.025026         0.142537        -2.426698
 H         3.571322         2.207263        -0.919567
