19
Iteration:   518
 C         0.187778        -0.418713        -0.429110
 C         1.598096        -0.060841        -0.006985
 C         2.295750        -1.162853         0.840149
 O         3.555389        -0.567407         1.252083
 C         4.017602         0.152542         0.167328
 C         3.809113        -0.524744        -1.255510
 C         2.536479         0.388761        -1.390976
 C         3.018869         1.391587        -0.278977
 O         1.858077         1.231336         0.609208
 H        -0.138133         0.422382        -1.199161
 H         0.189882        -1.314064        -0.968841
 H        -0.581091        -0.289999         0.419497
 H         1.768654        -1.444876         1.681527
 H         2.450973        -2.068299         0.109754
 H         5.071898         0.466076         0.358629
 H         4.583089        -0.167968        -1.970764
 H         3.814609        -1.670599        -1.368613
 H         2.124820         0.581507        -2.324488
 H         3.495838         2.357758        -0.575817
