19
Iteration:   351
 C         0.051779        -0.389109        -0.342077
 C         1.562728        -0.043734        -0.088566
 C         2.256065        -1.050932         0.756795
 O         3.604417        -0.781430         1.137675
 C         4.164397         0.176305         0.165586
 C         3.997545        -0.267711        -1.278984
 C         2.498942         0.264164        -1.254680
 C         3.047539         1.282894        -0.207209
 O         1.750842         1.226338         0.568409
 H        -0.255912        -1.288889         0.153309
 H        -0.597762         0.338297         0.112259
 H        -0.036556        -0.472628        -1.494361
 H         1.665558        -1.021276         1.617198
 H         2.080708        -2.070473         0.266484
 H         5.144498         0.406617         0.672252
 H         4.508439         0.497249        -1.941912
 H         4.315671        -1.334438        -1.495336
 H         2.033182         0.565317        -2.136185
 H         3.472621         2.272387        -0.378867
