19
Iteration:  2957charge 0 multiplicity 1
 C         0.111188        -0.338681        -0.230313
 C         1.574748        -0.031224        -0.070498
 C         2.227342        -0.812279         1.150058
 O         3.561869        -0.608436         1.243006
 C         4.086797         0.208829         0.099511
 C         3.959161        -0.669757        -1.069127
 C         2.614302        -0.084148        -1.313366
 C         3.025159         1.242840        -0.517084
 O         1.742400         1.463894         0.162404
 H        -0.355112         0.199293        -1.016425
 H         0.133361        -1.437439        -0.446223
 H        -0.431408        -0.243887         0.732177
 H         1.793044        -0.263137         2.007405
 H         1.952676        -1.905601         1.133408
 H         5.139211         0.561538         0.329195
 H         4.662874        -0.446384        -1.892955
 H         4.215762        -1.751079        -0.977587
 H         2.166845         0.047826        -2.287471
 H         3.627811         2.051501        -0.988751
