19
Iteration:  2672charge 0 multiplicity 1
 C         0.110240        -0.353489        -0.358166
 C         1.607693        -0.044724        -0.036970
 C         2.158389        -0.877456         1.129231
 O         3.591898        -0.426674         1.383598
 C         4.092468         0.195361         0.119743
 C         3.900103        -0.653633        -1.197112
 C         2.541784        -0.009685        -1.341027
 C         3.049176         1.201207        -0.550235
 O         1.874855         1.311054         0.293231
 H        -0.101705        -0.580895        -1.477638
 H        -0.315408        -1.260568         0.239931
 H        -0.444663         0.530617        -0.073928
 H         1.675498        -0.613309         2.057971
 H         2.204669        -1.957954         1.048235
 H         4.946573         0.692114         0.422982
 H         4.672278        -0.343101        -1.964452
 H         3.883858        -1.775554        -1.316835
 H         2.123883         0.210608        -2.292392
 H         3.335391         2.142687        -0.978628
