19
Iteration:  1035charge 0 multiplicity 1
 C         0.123190        -0.273085        -0.408390
 C         1.617131        -0.183419        -0.060563
 C         2.274817        -1.133058         0.940481
 O         3.601915        -0.451271         1.226217
 C         4.128681         0.246475         0.150794
 C         3.863454        -0.564108        -1.170255
 C         2.518454         0.150755        -1.287868
 C         2.972998         1.266862        -0.359157
 O         1.831263         1.285199         0.443048
 H        -0.039845         0.351491        -1.286817
 H        -0.298190        -1.353754        -0.571542
 H        -0.404508         0.229623         0.398558
 H         1.717225        -1.268495         1.982361
 H         2.409236        -2.053803         0.468669
 H         5.142715         0.662203         0.420543
 H         4.487944        -0.328148        -1.955250
 H         3.824721        -1.575768        -0.998130
 H         1.989035         0.201591        -2.384931
 H         3.221789         2.350880        -0.759741
