19
Iteration:  1860
 C         0.091037        -0.311147        -0.372351
 C         1.505687        -0.102845        -0.098867
 C         2.265968        -0.833553         1.109701
 O         3.604675        -0.342817         1.340168
 C         4.077761         0.183775         0.140075
 C         3.934031        -0.733501        -1.035112
 C         2.531377        -0.080833        -1.238907
 C         3.080027         1.176208        -0.568574
 O         1.858615         1.350922         0.196612
 H        -0.699459        -0.363413         0.406946
 H        -0.355263         0.565256        -0.977636
 H        -0.016446        -1.229061        -0.964554
 H         1.612518        -0.559211         2.053457
 H         2.240579        -1.937055         1.035531
 H         4.956585         0.716506         0.272202
 H         4.583933        -0.441774        -1.961438
 H         3.936791        -1.862638        -0.840941
 H         2.065833        -0.098800        -2.172789
 H         3.400024         2.191254        -0.994197
