19
Iteration:  2543
 C         0.158100        -0.354665        -0.306414
 C         1.573441        -0.013675        -0.002711
 C         2.208276        -0.874680         1.042502
 O         3.564940        -0.419715         1.300096
 C         4.098614         0.157701         0.133276
 C         3.881670        -0.719626        -1.133763
 C         2.542475         0.026537        -1.309322
 C         3.048373         1.242963        -0.487956
 O         1.821623         1.337125         0.208180
 H        -0.020909         0.280457        -1.196877
 H         0.232103        -1.441572        -0.534704
 H        -0.408422        -0.062884         0.526605
 H         1.742609        -0.792248         2.053119
 H         2.176644        -1.968328         0.845218
 H         5.140552         0.371858         0.451055
 H         4.486489        -0.451843        -1.991332
 H         3.870872        -1.783566        -0.732128
 H         2.007232         0.112082        -2.236411
 H         3.417221         2.173291        -0.871305
