19
Iteration:  1859
 C         0.097015        -0.314012        -0.371061
 C         1.511660        -0.102825        -0.097260
 C         2.263439        -0.831220         1.106041
 O         3.605552        -0.354272         1.343703
 C         4.074899         0.183836         0.142906
 C         3.938386        -0.738750        -1.036393
 C         2.525958        -0.078688        -1.244541
 C         3.080159         1.179865        -0.567251
 O         1.856902         1.352927         0.192239
 H        -0.717556        -0.327911         0.418626
 H        -0.380695         0.535795        -0.962538
 H        -0.044453        -1.220884        -0.949113
 H         1.571358        -0.532009         2.059148
 H         2.251899        -1.896781         1.070184
 H         4.996263         0.713158         0.267887
 H         4.575330        -0.398374        -1.959667
 H         3.970809        -1.836750        -0.847683
 H         2.077865        -0.113773        -2.178849
 H         3.370495         2.207391        -1.006115
