19
Iteration:  1765
 C         0.158192        -0.317527        -0.403423
 C         1.605979        -0.138313        -0.036795
 C         2.302510        -0.954688         1.096136
 O         3.494651        -0.180547         1.328107
 C         4.073135         0.173489         0.100553
 C         3.805630        -0.771090        -1.082656
 C         2.589017        -0.007322        -1.327027
 C         3.024679         1.233091        -0.512258
 O         1.887288         1.317138         0.285886
 H        -0.278931         0.504345         0.067334
 H        -0.077807        -0.055339        -1.469151
 H        -0.226462        -1.289584         0.003173
 H         1.594641        -0.988713         1.951265
 H         2.431318        -2.010977         0.759617
 H         5.141412         0.429479         0.371021
 H         4.543807        -0.710170        -1.803512
 H         3.651928        -1.816976        -0.772512
 H         1.902259        -0.248801        -2.311245
 H         3.461355         2.087113        -0.956328
