19
Iteration:  2211charge 0 multiplicity 1
 C         0.146169        -0.325800        -0.340099
 C         1.549292        -0.036747        -0.018417
 C         2.163819        -0.731223         1.177066
 O         3.594767        -0.539246         1.248484
 C         4.140519         0.225344         0.158210
 C         4.083430        -0.670773        -1.058515
 C         2.531518        -0.160130        -1.298083
 C         3.012532         1.181479        -0.507232
 O         1.782765         1.381144         0.150135
 H        -0.373561         0.492159         0.205733
 H        -0.111888        -0.064070        -1.393044
 H        -0.323379        -1.394344         0.019536
 H         1.595933        -0.368465         2.047993
 H         1.792152        -1.820227         1.112956
 H         5.088002         0.642874         0.286701
 H         4.452310        -0.430582        -2.072573
 H         4.106438        -1.715415        -0.952611
 H         2.006017        -0.042175        -2.237623
 H         3.169522         2.126478        -1.076143
