19
Iteration:   310charge 0 multiplicity 1
 C         0.116509        -0.284114        -0.276999
 C         1.561454        -0.071415        -0.150899
 C         2.223943        -1.152924         0.698487
 O         3.611320        -0.760710         1.137241
 C         4.086052         0.254794         0.211859
 C         4.003809        -0.306280        -1.252908
 C         2.566202         0.333655        -1.338934
 C         2.956124         1.296563        -0.169827
 O         1.795535         1.140516         0.581246
 H        -0.352299        -1.025114         0.429919
 H        -0.365652         0.609379        -0.243664
 H        -0.179247        -0.857443        -1.257666
 H         1.693730        -1.120311         1.675652
 H         2.291841        -2.131170         0.313296
 H         5.136168         0.644120         0.541885
 H         4.662550         0.057952        -1.948405
 H         4.129294        -1.412528        -1.287301
 H         2.020161         0.637726        -2.313682
 H         3.248269         2.350350        -0.373580
