19
Iteration:   113charge 0 multiplicity 1
 C         0.205045        -0.467250        -0.465382
 C         1.616654        -0.035337         0.003523
 C         2.224660        -1.118577         0.921173
 O         3.616351        -0.808658         1.035837
 C         4.069728         0.110633         0.147808
 C         3.910335        -0.276083        -1.365484
 C         2.538881         0.457834        -1.264801
 C         2.985303         1.384176        -0.241018
 O         1.769923         1.236886         0.707839
 H        -0.409404        -0.918300         0.335413
 H        -0.418755         0.225144        -0.829258
 H         0.322317        -1.289221        -1.342525
 H         1.730360        -1.013048         1.963294
 H         2.083794        -2.164999         0.513532
 H         5.140463         0.361610         0.377313
 H         4.645646         0.295220        -1.865003
 H         3.847072        -1.397804        -1.624159
 H         1.874541         0.682585        -2.168717
 H         3.360371         2.380506        -0.402474
