19
Iteration:  3770
 C         0.028765        -0.371531        -0.187593
 C         1.577649        -0.116629        -0.037230
 C         2.169345        -0.614030         1.226465
 O         3.549842        -0.175076         1.321658
 C         4.181006         0.172461         0.160191
 C         3.906602        -0.936054        -0.926537
 C         2.574891        -0.160682        -1.278597
 C         3.078372         1.131636        -0.743135
 O         1.917110         1.344319        -0.043518
 H        -0.445897        -0.962518         0.622271
 H        -0.595020         0.563914        -0.240537
 H        -0.085520        -0.718441        -1.267172
 H         1.547037        -0.070285         1.953044
 H         1.841129        -1.535219         1.419894
 H         5.179412         0.328950         0.414790
 H         4.486249        -0.576921        -1.888882
 H         3.847436        -2.064604        -0.855554
 H         2.026008        -0.175740        -2.241493
 H         3.499814         1.933140        -1.262181
