19
Iteration:  4225
 C         0.084332        -0.357742        -0.192695
 C         1.528341         0.012755        -0.055535
 C         2.150585        -0.346577         1.317368
 O         3.583386        -0.006251         1.361211
 C         4.138255         0.170856         0.079343
 C         3.929934        -1.103315        -0.733785
 C         2.526094        -0.452556        -1.186636
 C         3.124610         0.910490        -0.830313
 O         1.839473         1.433483        -0.289851
 H        -0.223839         0.239157        -1.026285
 H        -0.119784        -1.432707        -0.399465
 H        -0.484958        -0.075652         0.638368
 H         1.632353         0.137875         2.207025
 H         1.999531        -1.477628         1.457668
 H         5.172592         0.705535         0.340500
 H         4.669209        -1.055185        -1.599968
 H         3.877383        -2.041230        -0.040052
 H         2.179245        -0.660511        -2.209651
 H         3.709682         1.519812        -1.626411
