19
Iteration:  4695
 C        -0.042354        -0.289431        -0.119761
 C         1.516682         0.005600        -0.021020
 C         2.063367        -0.036792         1.395838
 O         3.447676         0.440704         1.336979
 C         4.159119         0.189197         0.092715
 C         3.969126        -1.345951        -0.470878
 C         2.642771        -0.808028        -1.021618
 C         3.214852         0.695051        -1.140752
 O         1.970272         1.332644        -0.587764
 H        -0.409703        -0.271646         0.846537
 H        -0.439725         0.453611        -0.763368
 H        -0.221431        -1.264657        -0.588415
 H         1.602039         0.655676         2.090341
 H         2.052779        -0.998132         1.821844
 H         5.116427         0.634031         0.333276
 H         4.670104        -1.575549        -1.298678
 H         3.856286        -2.136810         0.379946
 H         2.077200        -1.353497        -1.715880
 H         3.691927         1.278007        -2.025100
