19
Iteration:  1212
 C         0.083210        -0.486244        -0.254414
 C         1.536013        -0.018187        -0.177593
 C         2.199847        -0.869957         1.004046
 O         3.598272        -0.648073         1.209151
 C         4.106260         0.190414         0.161840
 C         3.927616        -0.549246        -1.180126
 C         2.633599         0.132861        -1.322003
 C         3.065885         1.196946        -0.348271
 O         1.781558         1.416166         0.322308
 H        -0.581305         0.264436         0.282875
 H        -0.277764        -0.511056        -1.365924
 H        -0.024763        -1.510565         0.220559
 H         1.687008        -0.558942         2.050831
 H         1.991578        -1.928496         0.828023
 H         5.029907         0.682983         0.454492
 H         4.571786        -0.162581        -1.958919
 H         4.135943        -1.580795        -1.027714
 H         2.184910         0.386433        -2.141948
 H         3.539688         2.152699        -0.775809
