19
Iteration:  4108
 C         0.050821        -0.310605        -0.194253
 C         1.567060        -0.042374        -0.077180
 C         2.128226        -0.400511         1.243660
 O         3.521961        -0.022776         1.395951
 C         4.169218         0.132389         0.134348
 C         3.958273        -0.997993        -0.856400
 C         2.576466        -0.401810        -1.214569
 C         3.064131         0.940311        -0.858615
 O         1.901854         1.357117        -0.107002
 H        -0.192225        -0.989209         0.645326
 H        -0.567090         0.646762        -0.134787
 H        -0.281805        -0.817832        -1.228514
 H         1.765709         0.201405         2.131079
 H         2.150224        -1.493040         1.561428
 H         5.157720         0.466715         0.250160
 H         4.594759        -0.691348        -1.742729
 H         3.887892        -2.033636        -0.575311
 H         2.135135        -0.500872        -2.270241
 H         3.364060         1.526246        -1.717983
