19
Iteration:  3780charge 0 multiplicity 1
 C         0.080779        -0.371892        -0.168471
 C         1.552972        -0.019703        -0.061140
 C         2.176980        -0.600130         1.200945
 O         3.515915        -0.231766         1.413316
 C         4.152479         0.146117         0.150580
 C         3.902374        -0.899178        -0.991185
 C         2.526093        -0.203665        -1.291527
 C         3.134497         1.111690        -0.752156
 O         1.883870         1.402083        -0.066594
 H        -0.207527        -1.109339         0.579630
 H        -0.525556         0.570417        -0.149434
 H        -0.140657        -0.980992        -1.068430
 H         1.665789        -0.132128         2.068705
 H         2.140799        -1.708441         1.213439
 H         5.142262         0.494361         0.348947
 H         4.775147        -0.815475        -1.826282
 H         3.883733        -1.969491        -0.612389
 H         2.047842        -0.339750        -2.261572
 H         3.471275         2.004111        -1.219453
