19
Iteration:  3703charge 0 multiplicity 1
 C         0.034962        -0.343167        -0.135964
 C         1.554564        -0.042930        -0.057680
 C         2.212160        -0.714768         1.120318
 O         3.506250        -0.100471         1.375873
 C         4.162322         0.186153         0.152492
 C         3.872082        -0.987099        -0.927196
 C         2.569556        -0.237328        -1.304397
 C         3.132463         1.115896        -0.710514
 O         1.889408         1.412847        -0.064426
 H        -0.179388        -1.283733         0.380096
 H        -0.608125         0.551420         0.145065
 H        -0.244940        -0.415073        -1.185857
 H         1.678104        -0.627721         2.101907
 H         2.412234        -1.813347         0.997571
 H         5.117833         0.655523         0.289132
 H         4.587005        -0.918754        -1.800068
 H         3.901563        -1.905518        -0.356784
 H         2.079918        -0.249855        -2.283747
 H         3.432165         1.987506        -1.250193
