19
Iteration:  1540charge 0 multiplicity 1
 C         0.070093        -0.429085        -0.368262
 C         1.525206        -0.018681        -0.101998
 C         2.245777        -0.892190         1.050288
 O         3.578670        -0.368011         1.384265
 C         4.143363         0.227121         0.136292
 C         3.875320        -0.760013        -1.103571
 C         2.565032        -0.005119        -1.220139
 C         3.068523         1.192948        -0.532344
 O         1.825412         1.421295         0.242737
 H        -0.324203         0.587057        -0.480491
 H         0.222685        -0.949201        -1.284397
 H        -0.471309        -0.920652         0.459812
 H         1.705586        -0.720712         1.893858
 H         2.120732        -1.972049         0.739372
 H         5.249557         0.463404         0.183130
 H         4.714325        -0.729384        -1.876860
 H         3.797293        -1.807369        -0.846376
 H         2.028677         0.056684        -2.352221
 H         3.533126         2.055044        -1.109341
