19
Iteration:  4783charge 0 multiplicity 1
 C         0.053926        -0.418768        -0.178812
 C         1.527110         0.032972        -0.046734
 C         2.082948         0.062295         1.374241
 O         3.512772         0.560395         1.333824
 C         4.093756         0.182963         0.060320
 C         3.815969        -1.393411        -0.334684
 C         2.542397        -0.770580        -1.005068
 C         3.175039         0.587530        -1.154527
 O         2.090623         1.356907        -0.566115
 H        -0.074574        -1.161569        -0.909937
 H        -0.255042        -0.796623         0.754361
 H        -0.659842         0.353820        -0.450460
 H         1.501611         0.704137         2.047519
 H         2.119975        -0.982110         1.678882
 H         5.174845         0.341188         0.185759
 H         4.575875        -1.641847        -1.100627
 H         3.922591        -2.213935         0.515269
 H         2.084915        -1.199348        -1.855853
 H         3.431387         1.241371        -2.080473
