19
Iteration:  1980
 C         0.100170        -0.357833        -0.324535
 C         1.577804        -0.084900        -0.058531
 C         2.176722        -0.795874         1.193087
 O         3.538263        -0.431611         1.278615
 C         4.134954         0.171127         0.128768
 C         4.000173        -0.693445        -1.093729
 C         2.566781        -0.074796        -1.311116
 C         2.999229         1.245379        -0.572170
 O         1.835595         1.364703         0.222168
 H        -0.550903         0.365171         0.172168
 H        -0.117861        -0.132817        -1.404455
 H        -0.402840        -1.291941        -0.055385
 H         1.584226        -0.536935         2.235454
 H         2.060715        -1.859866         1.068685
 H         5.049785         0.556526         0.437480
 H         4.687101        -0.389146        -1.903445
 H         4.083359        -1.758433        -1.055109
 H         2.360243        -0.163697        -2.307703
 H         3.557416         2.053633        -1.067264
