19
Iteration:  1573charge 0 multiplicity 1
 C         0.113842        -0.393330        -0.177342
 C         1.610740        -0.046951        -0.112820
 C         2.090978        -0.803072         1.111030
 O         3.504915        -0.479258         1.353355
 C         4.068262         0.230988         0.128393
 C         3.996118        -0.652606        -1.126961
 C         2.627065        -0.046281        -1.343596
 C         3.073515         1.209114        -0.564865
 O         1.853960         1.321308         0.140959
 H        -0.423484         0.521268         0.223586
 H        -0.299112        -0.404062        -1.200589
 H        -0.203682        -1.315373         0.367762
 H         1.592493        -0.407034         1.908310
 H         1.971253        -1.935046         1.136376
 H         5.077739         0.505967         0.572910
 H         4.821522        -0.181996        -1.780372
 H         3.965556        -1.724758        -0.993900
 H         2.166184         0.027242        -2.490373
 H         3.586414         2.150372        -0.949391
