19
Iteration:  3076
 C         0.063865        -0.388090        -0.163067
 C         1.630308        -0.114374        -0.112801
 C         2.076643        -0.798426         1.175991
 O         3.493159        -0.425183         1.292565
 C         4.090557         0.207199         0.168167
 C         4.022252        -0.706910        -1.150999
 C         2.543129        -0.009343        -1.327580
 C         3.149267         1.177253        -0.591742
 O         1.877470         1.375767         0.138633
 H        -0.408419         0.542122         0.024014
 H        -0.466474        -0.764902        -1.068692
 H        -0.203200        -1.151555         0.629675
 H         1.667808        -0.300309         2.057495
 H         1.965575        -1.967141         1.166740
 H         5.170780         0.383687         0.521587
 H         4.746519        -0.224764        -1.897947
 H         4.112638        -1.787485        -1.348999
 H         1.987789         0.177930        -2.291844
 H         3.548901         2.161872        -0.998331
