19
Iteration:  2352
 C         0.147329        -0.366053        -0.327835
 C         1.571617        -0.110269        -0.109666
 C         2.174925        -0.733686         1.198030
 O         3.563506        -0.469864         1.315766
 C         4.055800         0.232716         0.102188
 C         3.950591        -0.727774        -1.033151
 C         2.546773        -0.087667        -1.305804
 C         3.044433         1.223439        -0.551329
 O         1.891334         1.388378         0.186060
 H        -0.445531        -0.968512         0.339529
 H        -0.330033         0.574480        -0.288990
 H        -0.164692        -0.812208        -1.334718
 H         1.611330        -0.523629         2.110110
 H         2.132208        -1.885873         1.200125
 H         5.009050         0.682431         0.382324
 H         4.506172        -0.410871        -2.069967
 H         3.916212        -1.800092        -0.839616
 H         2.033055        -0.044733        -2.292776
 H         3.524980         2.012090        -1.229150
