19
Iteration:  2132charge 0 multiplicity 1
 C         0.042342        -0.410850        -0.337823
 C         1.593060        -0.092100        -0.044383
 C         2.235453        -0.876223         1.058445
 O         3.526172        -0.240258         1.381456
 C         4.094266         0.198401         0.148015
 C         3.857096        -0.860795        -1.015043
 C         2.578244         0.046541        -1.328230
 C         3.095087         1.226779        -0.597532
 O         1.911099         1.373444         0.218032
 H        -0.658192        -0.375581         0.542158
 H        -0.422967         0.157840        -1.206629
 H         0.025577        -1.423129        -0.879588
 H         1.656028        -0.867722         1.935656
 H         2.453348        -1.959381         0.642361
 H         5.136915         0.612793         0.251090
 H         4.558497        -0.801144        -1.916056
 H         3.787271        -1.906693        -0.742451
 H         1.891930         0.175916        -2.166331
 H         3.594591         2.173354        -0.973229
