19
Iteration:  2010charge 0 multiplicity 1
 C         0.107495        -0.354774        -0.358867
 C         1.577260        -0.102233        -0.113450
 C         2.301876        -0.904462         1.073277
 O         3.509000        -0.211457         1.381960
 C         4.111045         0.215684         0.189740
 C         3.812584        -0.801640        -1.078125
 C         2.540099        -0.031440        -1.341853
 C         3.052704         1.187091        -0.538697
 O         1.903391         1.336009         0.268839
 H        -0.435236         0.334412         0.374873
 H        -0.164734        -0.117484        -1.417736
 H        -0.323249        -1.305882        -0.171815
 H         1.616234        -0.927715         1.915200
 H         2.532253        -1.903849         0.535770
 H         5.143225         0.669903         0.416253
 H         4.581747        -0.751017        -1.891204
 H         3.609691        -1.830007        -1.010622
 H         2.217135        -0.007056        -2.422179
 H         3.551336         2.042374        -1.043256
