19
Iteration:  2601
 C         0.119296        -0.331337        -0.299223
 C         1.576366        -0.111190        -0.066290
 C         2.135154        -0.914200         1.088591
 O         3.593028        -0.489515         1.288438
 C         4.117590         0.194372         0.155015
 C         3.955963        -0.644913        -1.193115
 C         2.597479         0.003012        -1.213258
 C         3.043435         1.238653        -0.521307
 O         1.777939         1.401069         0.234741
 H        -0.147576        -0.450394        -1.320236
 H        -0.364104        -1.096349         0.264364
 H        -0.330369         0.649305         0.001982
 H         1.794787        -0.715114         2.115947
 H         2.176876        -1.925793         0.819439
 H         5.203981         0.356080         0.503796
 H         4.492708        -0.286371        -2.040160
 H         4.146288        -1.696100        -1.116016
 H         2.077047        -0.058164        -2.220651
 H         3.433193         2.112458        -1.108130
