19
Iteration:  4303
 C         0.030631        -0.333885        -0.243219
 C         1.557157        -0.029248        -0.020348
 C         2.216159        -0.404018         1.316365
 O         3.529987         0.206779         1.344942
 C         4.083886         0.137212         0.061011
 C         3.859802        -1.101561        -0.619200
 C         2.549517        -0.483106        -1.206589
 C         3.116881         0.910240        -0.923655
 O         1.935678         1.372815        -0.278455
 H        -0.468239        -0.384139         0.675948
 H        -0.441751         0.421458        -0.785062
 H        -0.072274        -1.299764        -0.720612
 H         1.817692        -0.115851         2.333786
 H         2.316296        -1.504920         1.451113
 H         5.094739         0.422776         0.340886
 H         4.724420        -1.227665        -1.315396
 H         3.832432        -2.066711        -0.006143
 H         2.009985        -0.703519        -2.156004
 H         3.730322         1.547026        -1.601640
