19
Iteration:  1578
 C         0.112257        -0.378764        -0.187248
 C         1.624758        -0.093090        -0.099705
 C         2.123893        -0.814248         1.093146
 O         3.485931        -0.476570         1.350048
 C         4.103129         0.212708         0.163517
 C         4.028867        -0.646097        -1.121103
 C         2.602868        -0.051223        -1.386675
 C         3.054479         1.201473        -0.585856
 O         1.861339         1.355039         0.154948
 H        -0.415916         0.437587         0.307999
 H        -0.518112        -0.320407        -1.097192
 H        -0.208137        -1.314718         0.242500
 H         1.427475        -0.277068         1.943558
 H         2.008275        -1.867520         1.212348
 H         4.939852         0.620362         0.671015
 H         4.697734        -0.349185        -1.880890
 H         4.019261        -1.752780        -1.009358
 H         2.208458         0.131702        -2.342843
 H         3.449269         2.150116        -0.972368
