19
Iteration:  1895charge 0 multiplicity 1
 C         0.129694        -0.346711        -0.360116
 C         1.643353        -0.079562        -0.099260
 C         2.260630        -0.886873         1.026094
 O         3.488698        -0.186167         1.367095
 C         4.066728         0.157760         0.109407
 C         3.823300        -0.831905        -1.005687
 C         2.535187        -0.037808        -1.278063
 C         3.018409         1.254377        -0.609864
 O         1.912632         1.323348         0.298983
 H        -0.317231        -0.646038         0.544013
 H        -0.184792         0.555386        -0.932258
 H         0.259630        -1.139939        -1.152714
 H         1.720451        -0.796496         1.928963
 H         2.475496        -2.007822         0.789208
 H         5.042379         0.516601         0.327093
 H         4.591973        -0.773447        -1.804520
 H         3.645587        -1.987902        -0.784059
 H         2.050113        -0.122552        -2.276600
 H         3.527335         2.154530        -1.006346
