19
Iteration:   143
 C         0.114709        -0.334406        -0.479968
 C         1.596672        -0.105401        -0.132613
 C         2.341547        -1.169149         0.718961
 O         3.659740        -0.621385         1.170558
 C         4.131184         0.239542         0.184870
 C         3.769783        -0.417679        -1.329066
 C         2.516730         0.377611        -1.184414
 C         3.032683         1.358065        -0.128466
 O         1.791155         1.101960         0.657741
 H        -0.508474        -0.674237         0.294630
 H        -0.448789         0.606478        -0.747762
 H         0.044881        -1.090271        -1.266611
 H         1.729868        -1.231292         1.577353
 H         2.489918        -2.120040         0.140652
 H         5.142010         0.581289         0.395396
 H         4.307188         0.035420        -2.104296
 H         3.668179        -1.451318        -1.459810
 H         1.910994         0.572510        -2.040299
 H         3.378498         2.375039        -0.144162
