19
Iteration:   334charge 0 multiplicity 1
 C         0.096491        -0.357318        -0.273604
 C         1.554121        -0.153067        -0.098609
 C         2.152886        -1.222122         0.853816
 O         3.557597        -0.772691         1.040085
 C         4.082088         0.212665         0.183137
 C         4.024829        -0.245955        -1.262324
 C         2.638943         0.316223        -1.301360
 C         2.988080         1.361927        -0.183320
 O         1.827074         1.267037         0.503336
 H        -0.284706        -1.259947         0.338728
 H        -0.410379         0.586101         0.038008
 H        -0.310908        -0.634089        -1.230086
 H         1.703595        -1.329509         1.928276
 H         2.260898        -2.195133         0.407687
 H         5.038101         0.518524         0.709972
 H         4.673142         0.378565        -1.850103
 H         4.218828        -1.250632        -1.610922
 H         2.106130         0.620571        -2.309829
 H         3.364078         2.382257        -0.453350
