19
Iteration:  1891charge 0 multiplicity 1
 C         0.160791        -0.335113        -0.371934
 C         1.578328        -0.076430        -0.097340
 C         2.288418        -0.908845         1.029395
 O         3.478325        -0.181333         1.379303
 C         4.074600         0.143927         0.084530
 C         3.841367        -0.862587        -1.011102
 C         2.553872        -0.046833        -1.273401
 C         3.037752         1.269221        -0.627785
 O         1.904011         1.332289         0.317507
 H        -0.416451        -0.713958         0.529962
 H        -0.115817         0.594052        -0.915063
 H         0.207040        -1.121884        -1.115358
 H         1.616672        -0.835624         2.021201
 H         2.437149        -1.896383         0.764168
 H         5.037807         0.601290         0.298744
 H         4.591435        -0.882896        -1.855644
 H         3.705897        -1.890068        -0.776398
 H         2.033686        -0.092567        -2.193859
 H         3.325972         2.319101        -1.015235
