19
Iteration:  3988charge 0 multiplicity 1
 C         0.040060        -0.249373        -0.241042
 C         1.588630        -0.051055         0.014383
 C         2.201367        -0.607588         1.313256
 O         3.567883        -0.216546         1.409753
 C         4.102000         0.270043         0.093293
 C         3.963546        -0.978967        -0.875643
 C         2.537577        -0.319586        -1.272111
 C         3.053656         1.050736        -0.882837
 O         1.889221         1.395964        -0.119849
 H        -0.289392         0.439490        -1.028632
 H        -0.050956        -1.353638        -0.431015
 H        -0.646590        -0.076719         0.672512
 H         1.606144        -0.129400         2.134556
 H         2.117160        -1.681226         1.380041
 H         5.046176         0.652597         0.320244
 H         4.667208        -0.682564        -1.685025
 H         3.891037        -1.911012        -0.375045
 H         2.058497        -0.627326        -2.237135
 H         3.412721         1.822833        -1.517258
