19
Iteration:   741charge 0 multiplicity 1
 C         0.071695        -0.347068        -0.337729
 C         1.565715        -0.132916        -0.127187
 C         2.261822        -0.998284         0.898681
 O         3.541679        -0.511107         1.292150
 C         4.104004         0.187290         0.188592
 C         3.977689        -0.528956        -1.160586
 C         2.514582         0.171652        -1.328322
 C         3.079315         1.279882        -0.375537
 O         1.846043         1.244348         0.415720
 H        -0.156701        -0.817698        -1.299432
 H        -0.464750        -1.095051         0.489291
 H        -0.294726         0.697643        -0.299048
 H         1.673709        -1.043123         1.747892
 H         2.151203        -1.974491         0.481549
 H         5.135260         0.445922         0.548255
 H         4.481531        -0.018427        -2.083716
 H         3.990718        -1.581562        -1.384960
 H         2.062790         0.403990        -2.240442
 H         3.285821         2.352931        -0.696897
