19
Iteration:  1123
 C         0.160014        -0.377026        -0.410875
 C         1.662013        -0.101009        -0.059205
 C         2.287169        -0.968633         0.940113
 O         3.595176        -0.488642         1.260883
 C         4.085245         0.192079         0.110091
 C         3.848278        -0.654708        -1.177743
 C         2.514630         0.174999        -1.317063
 C         3.031519         1.292169        -0.329249
 O         1.791114         1.311185         0.423266
 H        -0.461688         0.482345        -0.209306
 H         0.016712        -0.654477        -1.547093
 H        -0.368634        -1.148597         0.193285
 H         1.636291        -0.907283         1.956350
 H         2.287612        -2.022400         0.726531
 H         5.054694         0.614752         0.443760
 H         4.400669        -0.473735        -2.047395
 H         3.789656        -1.679673        -0.948678
 H         1.943436         0.316463        -2.179870
 H         3.421478         2.303750        -0.726579
