19
Iteration:  1034charge 0 multiplicity 1
 C         0.124724        -0.267230        -0.410305
 C         1.621157        -0.176096        -0.064651
 C         2.283548        -1.135097         0.940627
 O         3.599686        -0.444469         1.225884
 C         4.131750         0.250691         0.148385
 C         3.857640        -0.570644        -1.172824
 C         2.515911         0.154367        -1.277689
 C         2.973238         1.257538        -0.370454
 O         1.826414         1.277598         0.447352
 H        -0.075727         0.354226        -1.338679
 H        -0.311039        -1.353730        -0.572604
 H        -0.412455         0.260973         0.386520
 H         1.725813        -1.313566         2.013106
 H         2.426689        -2.066378         0.442000
 H         5.140518         0.662999         0.419980
 H         4.502779        -0.310854        -1.932055
 H         3.814604        -1.607459        -0.967217
 H         2.020464         0.222786        -2.323765
 H         3.220682         2.342483        -0.734211
