19
Iteration:  3505
 C         0.015646        -0.328796        -0.390072
 C         1.569413        -0.128727        -0.003103
 C         2.174793        -0.593015         1.321348
 O         3.560588        -0.032864         1.369089
 C         4.163634         0.173186         0.077549
 C         3.853862        -0.979803        -1.037078
 C         2.555501        -0.271240        -1.276485
 C         3.079389         1.101405        -0.735101
 O         1.938055         1.307945         0.084431
 H        -0.576562        -0.866460         0.396343
 H        -0.391141         0.710066        -0.229426
 H        -0.006787        -0.862074        -1.317668
 H         1.625922        -0.193126         2.197840
 H         2.247242        -1.692200         1.238763
 H         5.180949         0.524689         0.383803
 H         4.605397        -0.696779        -1.726984
 H         3.863800        -2.007513        -0.819039
 H         2.020271        -0.379330        -2.221594
 H         3.472446         2.079831        -0.975161
