19
Iteration:  1675charge 0 multiplicity 1
 C         0.067600        -0.471894        -0.308866
 C         1.579913        -0.091280        -0.136869
 C         2.159185        -0.746697         1.133426
 O         3.556197        -0.349172         1.328845
 C         4.130487         0.153697         0.129745
 C         3.904135        -0.803324        -1.083145
 C         2.614907         0.049311        -1.293588
 C         3.078148         1.198083        -0.530830
 O         1.840375         1.402984         0.193482
 H        -0.400228        -0.942801         0.589174
 H        -0.490083         0.488424        -0.505428
 H        -0.074216        -1.132330        -1.139732
 H         1.836321        -0.368233         2.047649
 H         1.989889        -1.842088         1.145813
 H         5.102533         0.509231         0.333231
 H         4.530709        -0.565673        -1.923025
 H         4.066472        -1.865407        -0.807738
 H         2.062080         0.002439        -2.369787
 H         3.582915         2.093596        -0.973242
