19
Iteration:    39
 C         0.136837        -0.260552        -0.327802
 C         1.587780        -0.153036        -0.138175
 C         2.399784        -1.236888         0.645223
 O         3.546468        -0.630827         1.117458
 C         4.036883         0.255522         0.186119
 C         3.890218        -0.316251        -1.241567
 C         2.484156         0.362329        -1.225713
 C         2.993275         1.276088        -0.187188
 O         1.830930         1.115839         0.652235
 H        -0.280152        -0.067540         0.688061
 H        -0.135621         0.354749        -1.203407
 H        -0.251033        -1.225926        -0.689562
 H         1.856242        -1.628232         1.530428
 H         2.509872        -2.144602         0.062829
 H         4.989725         0.666981         0.587184
 H         4.542284         0.249799        -1.968153
 H         4.034379        -1.446887        -1.516715
 H         1.984309         0.727309        -2.186625
 H         3.325578         2.302142        -0.462635
