19
Iteration:  1750charge 0 multiplicity 1
 C         0.093068        -0.269676        -0.374790
 C         1.603160        -0.118048        -0.101471
 C         2.245142        -0.853288         1.046406
 O         3.525907        -0.252495         1.385164
 C         4.130021         0.238953         0.145217
 C         3.889097        -0.818489        -1.057816
 C         2.486997        -0.037643        -1.319116
 C         3.053059         1.194039        -0.610518
 O         1.883601         1.244937         0.322673
 H        -0.579068         0.358795         0.307774
 H         0.013746        -0.102688        -1.469263
 H        -0.233987        -1.278532        -0.205059
 H         1.728826        -0.750186         1.946299
 H         2.520611        -1.979011         0.947791
 H         5.092599         0.609798         0.303323
 H         4.629135        -0.600923        -1.946787
 H         3.944552        -1.939528        -0.971423
 H         2.124237         0.190157        -2.321781
 H         3.163537         2.272042        -0.970351
