19
Iteration:  4429charge 0 multiplicity 1
 C         0.073072        -0.336275        -0.223899
 C         1.553271        -0.065710        -0.020723
 C         2.164476        -0.253086         1.289449
 O         3.509630         0.302793         1.383100
 C         4.119779         0.126694         0.135173
 C         3.850689        -1.154092        -0.583175
 C         2.565761        -0.626847        -1.143319
 C         3.120399         0.821768        -0.998623
 O         1.920505         1.380477        -0.362208
 H        -0.099896         0.605368        -0.791346
 H        -0.271815        -1.206853        -0.743420
 H        -0.450698        -0.286950         0.695451
 H         1.686328         0.222540         2.173932
 H         2.526254        -1.233167         1.537281
 H         5.225899         0.414226         0.212663
 H         4.716676        -1.225238        -1.355096
 H         3.824025        -2.146861        -0.114313
 H         2.028834        -1.014955        -1.987583
 H         3.523867         1.497715        -1.765566
