19
Iteration:  1726charge 0 multiplicity 1
 C         0.028209        -0.324243        -0.289613
 C         1.605052        -0.089299        -0.077314
 C         2.168207        -0.846866         1.099212
 O         3.527518        -0.401680         1.283615
 C         4.111629         0.235021         0.158805
 C         3.985328        -0.701917        -1.083644
 C         2.593577        -0.126117        -1.305937
 C         3.057411         1.183299        -0.529067
 O         1.835230         1.411154         0.169775
 H        -0.546314        -0.087273         0.681605
 H        -0.317726         0.189238        -1.157107
 H        -0.209012        -1.406504        -0.440360
 H         1.923498        -0.575775         2.178893
 H         2.081290        -1.964943         0.978588
 H         5.162452         0.558401         0.354207
 H         4.829047        -0.462732        -1.858625
 H         4.144325        -1.765869        -0.884108
 H         2.095007        -0.089666        -2.181073
 H         3.401512         2.185835        -0.926409
