19
Iteration:  1724charge 0 multiplicity 1
 C         0.031493        -0.329872        -0.273057
 C         1.614180        -0.094083        -0.067303
 C         2.168369        -0.850846         1.095933
 O         3.513918        -0.424793         1.277180
 C         4.111139         0.232259         0.165344
 C         4.007563        -0.710611        -1.085898
 C         2.579385        -0.122471        -1.290886
 C         3.065417         1.203917        -0.544854
 O         1.824669         1.426795         0.150917
 H        -0.518926        -0.115742         0.652840
 H        -0.302453         0.269172        -1.107475
 H        -0.146093        -1.447287        -0.458597
 H         1.871705        -0.547852         2.237534
 H         2.120963        -1.914328         1.018850
 H         5.200150         0.575673         0.388776
 H         4.779753        -0.458085        -1.837657
 H         4.139930        -1.772356        -0.920583
 H         2.114854        -0.045833        -2.232011
 H         3.352472         2.174839        -0.914372
