19
Iteration:  3408
 C         0.074636        -0.301833        -0.264631
 C         1.578320        -0.149555        -0.085792
 C         2.113950        -0.727012         1.234877
 O         3.540997        -0.182132         1.402951
 C         4.140745         0.180798         0.105031
 C         3.936146        -0.819336        -0.977979
 C         2.543531        -0.201208        -1.324550
 C         3.062171         1.086208        -0.743339
 O         1.936027         1.381071         0.097253
 H        -0.341612         0.759030        -0.305561
 H        -0.207266        -0.769002        -1.294394
 H        -0.351919        -0.793516         0.608362
 H         1.669906        -0.234287         2.096233
 H         2.139331        -1.826295         1.258451
 H         5.141433         0.542434         0.341434
 H         4.564499        -0.448007        -1.834132
 H         4.048787        -1.979894        -0.919977
 H         1.966904        -0.434352        -2.194955
 H         3.310648         1.876977        -1.409482
