19
Iteration:   564charge 0 multiplicity 1
 C         0.062598        -0.383231        -0.352376
 C         1.551060        -0.083460        -0.112357
 C         2.221858        -1.027070         0.925706
 O         3.578389        -0.698716         1.201262
 C         4.145173         0.205507         0.144700
 C         4.033786        -0.422595        -1.290938
 C         2.565788         0.246511        -1.309542
 C         3.017234         1.285035        -0.299035
 O         1.787419         1.264664         0.518928
 H        -0.616209         0.440698         0.004092
 H        -0.095154        -0.339327        -1.469102
 H        -0.313903        -1.249673         0.100806
 H         1.553266        -0.846444         1.843051
 H         2.131374        -2.150597         0.592113
 H         5.092143         0.479638         0.564180
 H         4.829197         0.036349        -1.954495
 H         4.069911        -1.462685        -1.428161
 H         1.944700         0.469900        -2.257406
 H         3.347216         2.394454        -0.311415
