19
Iteration:   883charge 0 multiplicity 1
 C         0.073749        -0.277860        -0.450238
 C         1.554060        -0.117540        -0.080697
 C         2.326909        -1.063570         0.938049
 O         3.537876        -0.381915         1.272493
 C         4.105780         0.239687         0.150138
 C         3.849658        -0.646052        -1.130323
 C         2.521744         0.091288        -1.264306
 C         3.065049         1.305721        -0.371361
 O         1.853270         1.224812         0.433306
 H        -0.299164         0.610953        -0.810680
 H        -0.132049        -1.016027        -1.293052
 H        -0.509285        -0.460204         0.441111
 H         1.970268        -1.389258         1.847079
 H         2.651135        -2.165956         0.562039
 H         5.180036         0.549755         0.260389
 H         4.507973        -0.321579        -2.129468
 H         3.880811        -1.745497        -1.020072
 H         2.045934         0.393379        -2.246833
 H         3.442806         2.364673        -0.712530
