19
Iteration:  3933charge 0 multiplicity 1
 C         0.128810        -0.431334        -0.183477
 C         1.650831        -0.134307        -0.097021
 C         2.135735        -0.617022         1.306354
 O         3.483375         0.007561         1.389360
 C         4.128884         0.137284         0.089885
 C         3.768800        -0.926484        -0.919360
 C         2.513345        -0.154969        -1.444936
 C         3.124142         1.039613        -0.710097
 O         1.988468         1.389082        -0.040169
 H        -0.234185        -0.995600        -0.992527
 H        -0.324651        -0.968195         0.627901
 H        -0.182683         0.631593        -0.104725
 H         1.511436        -0.368441         2.194783
 H         2.234550        -1.668396         1.420828
 H         5.133903         0.318074         0.260213
 H         4.656528        -1.143822        -1.611072
 H         3.507538        -1.890008        -0.505565
 H         2.204671        -0.377012        -2.466494
 H         3.503363         1.867001        -1.244815
