19
Iteration:  1472charge 0 multiplicity 1
 C        -0.006320        -0.330926        -0.281307
 C         1.605013        -0.096958        -0.050953
 C         2.213903        -0.863648         1.042189
 O         3.580891        -0.460952         1.301914
 C         4.086200         0.166365         0.154505
 C         3.961349        -0.632346        -1.072023
 C         2.594804        -0.017908        -1.328120
 C         3.090089         1.214818        -0.491281
 O         1.793474         1.383203         0.179184
 H        -0.194307        -0.394192        -1.290902
 H        -0.117115        -1.340243         0.202266
 H        -0.660794         0.473639         0.136692
 H         1.659608        -0.612166         1.884604
 H         2.237596        -1.982658         0.947463
 H         5.045394         0.489409         0.611783
 H         4.668316        -0.195961        -1.807683
 H         4.190814        -1.735810        -0.999318
 H         2.125548        -0.103330        -2.425640
 H         3.476748         2.061501        -0.960237
