19
Iteration:  1279charge 0 multiplicity 1
 C         0.101289        -0.276661        -0.415523
 C         1.528997        -0.101943        -0.055047
 C         2.281724        -1.017151         0.937611
 O         3.570804        -0.378585         1.299963
 C         4.117635         0.236760         0.080637
 C         3.903562        -0.700694        -1.085315
 C         2.560615         0.069010        -1.239507
 C         3.020832         1.295597        -0.447823
 O         1.835732         1.279623         0.380077
 H        -0.399440        -0.726892         0.601252
 H        -0.476612         0.680696        -0.582990
 H        -0.223323        -1.070214        -1.201227
 H         1.592739        -1.217617         1.938756
 H         2.451050        -1.952096         0.406903
 H         5.162529         0.385261         0.310759
 H         4.596357        -0.575706        -1.949721
 H         3.948132        -1.734895        -0.841599
 H         2.334381         0.125372        -2.258041
 H         3.297381         2.302272        -0.923836
