19
Iteration:  2304
 C         0.104007        -0.334636        -0.277330
 C         1.627291        -0.071511        -0.097124
 C         2.193993        -0.861492         1.091887
 O         3.543931        -0.362482         1.362365
 C         4.101340         0.235679         0.209773
 C         3.944936        -0.750807        -1.111133
 C         2.583763        -0.086065        -1.294240
 C         3.028678         1.138517        -0.605686
 O         1.835210         1.386868         0.146527
 H        -0.405948        -0.780756         0.593486
 H        -0.431183         0.643703        -0.335515
 H        -0.165181        -0.824717        -1.161489
 H         1.523662        -0.542808         2.008006
 H         2.098017        -2.004468         1.062229
 H         5.117685         0.674433         0.526049
 H         4.593797        -0.351962        -1.863541
 H         4.064169        -1.851375        -0.985563
 H         1.972303         0.110793        -2.215428
 H         3.524292         1.988440        -1.092827
