19
Iteration:  2169
 C         0.124000        -0.327543        -0.208298
 C         1.554990        -0.075681        -0.130970
 C         2.166196        -0.858270         1.018807
 O         3.504234        -0.309846         1.389277
 C         4.079287         0.183490         0.172117
 C         3.964140        -0.776624        -1.102064
 C         2.574100        -0.008890        -1.340072
 C         3.057753         1.213549        -0.601674
 O         1.881771         1.309530         0.171320
 H        -0.427987         0.267722         0.528295
 H        -0.181478         0.000360        -1.189209
 H        -0.055628        -1.399525         0.195904
 H         1.507285        -0.810498         2.035160
 H         2.221286        -1.996625         0.782458
 H         4.999294         0.638286         0.505658
 H         4.782983        -0.441944        -1.672125
 H         4.068723        -1.847368        -0.918761
 H         2.094599        -0.051379        -2.334102
 H         3.530775         2.136938        -0.928061
