19
Iteration:   871charge 0 multiplicity 1
 C         0.073965        -0.261073        -0.358217
 C         1.562687        -0.120876        -0.062583
 C         2.316490        -1.112778         0.918051
 O         3.564499        -0.450273         1.264432
 C         4.123756         0.231432         0.137352
 C         3.929740        -0.660791        -1.130232
 C         2.563764         0.162437        -1.282962
 C         3.019783         1.278732        -0.402415
 O         1.772544         1.299286         0.392582
 H        -0.225390         0.584652        -0.878986
 H        -0.058175        -1.191837        -0.939806
 H        -0.509515        -0.395421         0.519275
 H         1.693460        -1.075115         1.771995
 H         2.438909        -2.155061         0.384695
 H         5.120662         0.533066         0.533220
 H         4.685245        -0.305947        -1.983619
 H         3.956058        -1.740156        -1.065336
 H         2.084156         0.269358        -2.351659
 H         3.300849         2.373490        -0.647882
