19
Iteration:  2383
 C         0.084606        -0.449218        -0.278795
 C         1.564510         0.014253        -0.134143
 C         2.274926        -0.847784         1.097803
 O         3.516532        -0.244191         1.388299
 C         4.139210         0.120072         0.134945
 C         3.839121        -0.869081        -1.059345
 C         2.597204         0.034206        -1.286537
 C         3.092589         1.220440        -0.546450
 O         1.854653         1.388381         0.194137
 H        -0.336718        -1.058266         0.484670
 H        -0.520507         0.406847        -0.430415
 H        -0.020796        -0.960602        -1.252746
 H         1.537742        -0.978748         1.902208
 H         2.428184        -1.801250         0.542434
 H         5.220547         0.428664         0.330421
 H         4.451300        -0.837406        -1.985041
 H         3.603035        -1.890822        -0.944580
 H         2.062059         0.324386        -2.248504
 H         3.495849         2.084396        -1.165442
