19
Iteration:  1209charge 0 multiplicity 1
 C         0.076495        -0.476045        -0.241134
 C         1.552911        -0.029912        -0.167436
 C         2.189358        -0.871679         1.011460
 O         3.611842        -0.661456         1.209143
 C         4.085956         0.202379         0.159771
 C         3.963026        -0.549591        -1.157903
 C         2.617719         0.132047        -1.328574
 C         3.069422         1.210094        -0.346086
 O         1.783666         1.418547         0.310117
 H        -0.549627         0.246300         0.208930
 H        -0.413758        -0.557569        -1.344099
 H        -0.073213        -1.453294         0.206612
 H         1.702708        -0.588836         1.954870
 H         2.028645        -1.943929         0.729101
 H         5.003069         0.743759         0.529571
 H         4.578943        -0.210287        -1.999776
 H         4.135104        -1.717571        -1.062696
 H         2.038959         0.488848        -2.245917
 H         3.527990         2.154594        -0.772010
