19
Iteration:    61charge 0 multiplicity 1
 C         0.124641        -0.326092        -0.284859
 C         1.628625        -0.089313        -0.083320
 C         2.244422        -1.215298         0.781509
 O         3.641979        -0.843999         1.121841
 C         4.091904         0.238885         0.161204
 C         3.969771        -0.279115        -1.333479
 C         2.591140         0.380899        -1.330829
 C         2.871267         1.441461        -0.140672
 O         1.768352         1.176790         0.574608
 H        -0.391048        -0.317436         0.710471
 H        -0.249530         0.265539        -1.123998
 H        -0.110820        -1.314474        -0.704010
 H         1.680297        -1.324011         1.728739
 H         2.132095        -2.183240         0.351432
 H         5.152766         0.482453         0.376236
 H         4.690654         0.197537        -2.083437
 H         4.105897        -1.436183        -1.491626
 H         2.098956         0.609361        -2.334477
 H         3.028906         2.552749        -0.124251
