19
Iteration:  2356
 C         0.167347        -0.393159        -0.321807
 C         1.606651        -0.051550        -0.119694
 C         2.198483        -0.775403         1.200044
 O         3.568231        -0.430142         1.302523
 C         4.046561         0.202335         0.110900
 C         3.922473        -0.719320        -1.029240
 C         2.547739        -0.106383        -1.324024
 C         3.034932         1.211875        -0.543068
 O         1.880499         1.405183         0.185107
 H        -0.495001        -1.042838         0.335293
 H        -0.306003         0.662027        -0.322964
 H        -0.150133        -0.807528        -1.307416
 H         1.520788        -0.523486         2.037386
 H         2.040569        -1.862434         1.055516
 H         5.017905         0.595272         0.321280
 H         4.456031        -0.473221        -1.946456
 H         3.884901        -1.819058        -0.768540
 H         1.961600        -0.099192        -2.220168
 H         3.569224         2.038740        -0.989812
