19
Iteration:  1832charge 0 multiplicity 1
 C         0.166614        -0.352743        -0.217392
 C         1.567469        -0.095099        -0.067193
 C         2.111847        -0.736134         1.183177
 O         3.509257        -0.475801         1.282515
 C         4.076665         0.137147         0.177039
 C         4.051498        -0.647022        -1.156961
 C         2.645528        -0.033505        -1.303077
 C         3.050169         1.176062        -0.577821
 O         1.801350         1.365029         0.124472
 H        -0.446263         0.032541         0.573087
 H        -0.374832         0.059818        -1.037132
 H        -0.027914        -1.441034        -0.388240
 H         1.652185        -0.396592         2.071557
 H         1.987665        -1.878488         1.196882
 H         5.023645         0.740565         0.468336
 H         4.714590        -0.404351        -1.920008
 H         3.832576        -1.665728        -0.947968
 H         2.131194        -0.043730        -2.370367
 H         3.464461         2.070481        -0.942448
