19
Iteration:   576
 C         0.065215        -0.352279        -0.319063
 C         1.591821        -0.139969        -0.076806
 C         2.165941        -1.056963         0.959644
 O         3.566937        -0.725953         1.198156
 C         4.092521         0.180394         0.193774
 C         4.032026        -0.341308        -1.307157
 C         2.601068         0.264918        -1.323645
 C         3.004244         1.306651        -0.275321
 O         1.820208         1.264235         0.419369
 H        -0.449793         0.305736         0.337617
 H        -0.286426        -0.211377        -1.419246
 H        -0.116695        -1.318495        -0.134322
 H         1.660825        -0.902730         2.025691
 H         2.048340        -2.201165         0.701515
 H         5.016647         0.555432         0.573164
 H         4.665539         0.122002        -2.114767
 H         4.110713        -1.356748        -1.296259
 H         2.049888         0.471046        -2.370155
 H         3.436981         2.262225        -0.720985
