19
Iteration:   810
 C         0.087990        -0.441089        -0.350763
 C         1.545964        -0.018335        -0.088151
 C         2.211415        -0.912280         0.996871
 O         3.565165        -0.608463         1.240624
 C         4.134858         0.182570         0.156192
 C         3.958895        -0.588626        -1.275698
 C         2.610215         0.201057        -1.319174
 C         3.058770         1.272245        -0.323414
 O         1.775505         1.306607         0.385791
 H        -0.217638        -0.434526        -1.418236
 H        -0.224925        -1.498464         0.016822
 H        -0.559348         0.305936         0.251396
 H         1.619139        -0.838403         2.039167
 H         2.120705        -1.959467         0.754893
 H         5.044950         0.668643         0.643150
 H         4.633343        -0.098778        -1.928523
 H         4.283855        -1.645047        -1.385791
 H         2.061262         0.418662        -2.378124
 H         3.453773         2.246734        -0.491510
