19
Iteration:   534charge 0 multiplicity 1
 C         0.154963        -0.368171        -0.428730
 C         1.593621        -0.094871        -0.098932
 C         2.302321        -1.130715         0.792409
 O         3.543970        -0.598201         1.246413
 C         4.131148         0.241263         0.120645
 C         3.812121        -0.497509        -1.235531
 C         2.512579         0.298524        -1.241801
 C         3.040246         1.321776        -0.270393
 O         1.866371         1.265648         0.556248
 H        -0.379339         0.458146        -0.765055
 H         0.145163        -1.018093        -1.381024
 H        -0.341366        -0.869418         0.338457
 H         1.644019        -1.343922         1.747188
 H         2.427288        -2.121800         0.353192
 H         5.113629         0.463139         0.505086
 H         4.549544        -0.302035        -2.009096
 H         3.571113        -1.502972        -1.088221
 H         1.823955         0.609647        -2.182531
 H         3.283348         2.389055        -0.327271
