19
Iteration:  2582
 C         0.037115        -0.290581        -0.377653
 C         1.505130        -0.076957        -0.042032
 C         2.182971        -0.783429         1.198099
 O         3.579516        -0.492490         1.224501
 C         4.155961         0.215435         0.101597
 C         4.041161        -0.610935        -1.184998
 C         2.533717        -0.051779        -1.291208
 C         3.039618         1.157977        -0.461522
 O         1.867635         1.252930         0.306238
 H        -0.086509        -0.369747        -1.472950
 H        -0.444638        -1.241946        -0.024816
 H        -0.711950         0.512190         0.052631
 H         1.660710        -0.257724         2.051107
 H         1.939746        -1.883076         1.262846
 H         5.160055         0.650001         0.381103
 H         4.688638        -0.194011        -2.026572
 H         4.264785        -1.650629        -1.208478
 H         2.049115         0.054743        -2.324234
 H         3.344735         2.174981        -0.813441
