19
Iteration:  1322
 C         0.092230        -0.360887        -0.185103
 C         1.640898        -0.051669        -0.170706
 C         2.095025        -0.940169         1.038756
 O         3.505746        -0.527599         1.322247
 C         4.164125         0.175744         0.211101
 C         3.982431        -0.590291        -1.177124
 C         2.628166         0.028271        -1.375343
 C         3.026316         1.222437        -0.496721
 O         1.796470         1.365147         0.243143
 H        -0.102698        -1.404581         0.258210
 H        -0.467407         0.409586         0.377546
 H        -0.316109        -0.289133        -1.259687
 H         1.679607        -0.696917         2.082473
 H         2.139955        -1.976672         0.889780
 H         5.120782         0.603033         0.464522
 H         4.646347        -0.002869        -1.867602
 H         4.240808        -1.609684        -1.331198
 H         2.199662         0.186450        -2.247781
 H         3.433330         2.260717        -0.878204
