19
Iteration:  3648charge 0 multiplicity 1
 C         0.066313        -0.334711        -0.300013
 C         1.545396        -0.012819        -0.003113
 C         2.219919        -0.561601         1.275436
 O         3.566133        -0.180744         1.348619
 C         4.132260         0.170832         0.133134
 C         3.898075        -0.934781        -0.942177
 C         2.583655        -0.268676        -1.227499
 C         3.086354         1.036206        -0.761603
 O         1.841737         1.415577        -0.051747
 H         0.030264        -1.380311        -0.648156
 H        -0.521051        -0.425311         0.679213
 H        -0.363693         0.326636        -1.033304
 H         1.706592        -0.373456         2.247759
 H         2.131434        -1.775217         1.237507
 H         5.080406         0.713744         0.151677
 H         4.637188        -0.838143        -1.764457
 H         3.955082        -1.931246        -0.555364
 H         1.944450        -0.340625        -2.107976
 H         3.455003         1.832805        -1.380570
