19
Iteration:  3649
 C         0.068136        -0.338897        -0.291682
 C         1.547673        -0.023451        -0.000703
 C         2.214338        -0.560121         1.271282
 O         3.557338        -0.182059         1.351418
 C         4.136720         0.178632         0.128639
 C         3.895952        -0.930713        -0.943584
 C         2.593565        -0.264149        -1.226873
 C         3.095761         1.039576        -0.766104
 O         1.841683         1.409335        -0.055589
 H         0.031052        -1.394817        -0.616530
 H        -0.530051        -0.398227         0.689348
 H        -0.354010         0.353035        -1.027510
 H         1.707150        -0.388290         2.232515
 H         2.109230        -1.758037         1.255430
 H         5.067296         0.684175         0.140846
 H         4.584260        -0.817421        -1.747671
 H         3.921368        -1.929036        -0.571540
 H         1.945813        -0.313186        -2.101646
 H         3.473627         1.814059        -1.372352
