19
Iteration:  1985charge 0 multiplicity 1
 C         0.101177        -0.323292        -0.346116
 C         1.580219        -0.079086        -0.041239
 C         2.190888        -0.814294         1.187894
 O         3.539154        -0.363797         1.290879
 C         4.112229         0.146768         0.100450
 C         3.988534        -0.710002        -1.079731
 C         2.576241        -0.053214        -1.283348
 C         3.025278         1.223817        -0.557222
 O         1.818645         1.332546         0.229698
 H        -0.604634         0.322313         0.218140
 H        -0.060558        -0.249573        -1.404964
 H        -0.402069        -1.297664        -0.065833
 H         1.593281        -0.541516         1.959377
 H         2.114508        -1.909400         0.866651
 H         5.187946         0.487316         0.402062
 H         4.547767        -0.418197        -1.986322
 H         4.243159        -1.892765        -1.008136
 H         2.171295        -0.086813        -2.421651
 H         3.552220         2.088723        -0.978467
