19
Iteration:  3050
 C         0.057024        -0.247517        -0.315649
 C         1.600136        -0.045491        -0.039387
 C         2.207383        -0.797885         1.124646
 O         3.631537        -0.393441         1.319313
 C         4.078513         0.197226         0.119172
 C         3.964436        -0.735778        -1.089041
 C         2.563430        -0.096609        -1.296866
 C         3.002806         1.148251        -0.523496
 O         1.822874         1.322873         0.190004
 H        -0.587614         0.693721        -0.250226
 H        -0.123754        -0.668995        -1.332058
 H        -0.424257        -0.977096         0.317136
 H         1.788521        -0.620261         2.139869
 H         2.226320        -1.918590         0.833325
 H         5.067047         0.502329         0.304830
 H         4.726632        -0.453021        -1.806601
 H         4.012984        -1.795126        -1.241023
 H         2.056765        -0.132731        -2.279511
 H         3.268314         2.120925        -0.910548
