19
Iteration:    70
 C         0.082705        -0.391443        -0.313591
 C         1.530667        -0.098111        -0.109559
 C         2.270569        -1.144892         0.833338
 O         3.654181        -0.854054         1.053303
 C         4.112401         0.179464         0.147796
 C         4.002181        -0.278860        -1.319217
 C         2.605836         0.426978        -1.274505
 C         2.949463         1.404703        -0.174510
 O         1.731230         1.201447         0.597864
 H        -0.473654        -0.355698         0.611787
 H        -0.379524         0.273188        -0.896963
 H         0.060133        -1.473588        -0.785910
 H         1.766766        -1.061492         1.847286
 H         2.131149        -2.096950         0.416223
 H         5.032920         0.536043         0.669474
 H         4.643568         0.340431        -1.941072
 H         4.043375        -1.418685        -1.591107
 H         2.057158         0.761450        -2.216574
 H         3.269907         2.434359        -0.329967
