19
Iteration:  3349charge 0 multiplicity 1
 C         0.131725        -0.405613        -0.257891
 C         1.595994        -0.032753        -0.085685
 C         2.260045        -0.732610         1.180581
 O         3.538436        -0.207060         1.417661
 C         4.055259         0.180547         0.143852
 C         3.810888        -0.887769        -1.067009
 C         2.574639        -0.069686        -1.363762
 C         3.127327         1.108184        -0.640560
 O         1.878226         1.369794         0.080995
 H        -0.193919        -0.410490        -1.341099
 H        -0.106678        -1.356309         0.244166
 H        -0.523882         0.399703         0.306899
 H         1.624512        -0.561999         2.071843
 H         2.114900        -1.811934         1.122877
 H         5.110651         0.619076         0.316474
 H         4.652901        -0.676410        -1.784574
 H         3.546139        -1.897017        -0.813200
 H         1.889243        -0.221951        -2.280725
 H         3.517398         2.085974        -1.065876
