19
Iteration:  4705charge 0 multiplicity 1
 C        -0.002348        -0.286610        -0.112771
 C         1.539527        -0.000363        -0.071431
 C         2.079881        -0.024379         1.334101
 O         3.471940         0.420959         1.346717
 C         4.130638         0.194857         0.072013
 C         3.983488        -1.282081        -0.435331
 C         2.575712        -0.683250        -0.968127
 C         3.215150         0.576773        -1.061720
 O         1.975542         1.285885        -0.607485
 H        -0.430278        -0.440520         0.792759
 H        -0.519407         0.605303        -0.442489
 H        -0.320716        -1.061291        -0.776681
 H         1.430728         0.602087         2.005550
 H         2.029803        -1.001432         1.706800
 H         5.089474         0.677331         0.217570
 H         4.649993        -1.561207        -1.290966
 H         4.036738        -2.192476         0.323756
 H         2.133142        -1.211513        -1.736048
 H         3.445667         1.043921        -2.064254
