19
Iteration:    38
 C         0.119792        -0.255311        -0.334487
 C         1.586947        -0.150187        -0.136417
 C         2.406264        -1.240022         0.634975
 O         3.541522        -0.621385         1.119286
 C         4.037840         0.256708         0.188613
 C         3.893927        -0.325007        -1.246110
 C         2.485092         0.360715        -1.217603
 C         2.990245         1.271845        -0.185198
 O         1.840819         1.115581         0.655605
 H        -0.309852        -0.070585         0.645803
 H        -0.134066         0.320925        -1.135872
 H        -0.258846        -1.268360        -0.702974
 H         1.874171        -1.630797         1.541049
 H         2.538163        -2.101084         0.074883
 H         5.002122         0.667566         0.564102
 H         4.522021         0.251645        -1.955848
 H         4.058545        -1.471961        -1.538143
 H         2.007871         0.763870        -2.182050
 H         3.302169         2.281725        -0.467165
