19
Iteration:  4383
 C         0.093810        -0.363181        -0.130278
 C         1.569823        -0.029313        -0.045483
 C         2.140595        -0.288694         1.315752
 O         3.480370         0.176335         1.405621
 C         4.119074         0.140548         0.097144
 C         3.883255        -1.159256        -0.588139
 C         2.563614        -0.552295        -1.198882
 C         3.148757         0.918899        -0.991355
 O         1.929076         1.400917        -0.398900
 H        -0.054208        -1.009962        -0.997521
 H        -0.281436        -0.790783         0.758556
 H        -0.475823         0.530951        -0.230316
 H         1.625356         0.388170         2.109661
 H         2.064201        -1.421210         1.431218
 H         5.097679         0.514364         0.356312
 H         4.620234        -1.257518        -1.508651
 H         3.961002        -2.105328         0.002280
 H         2.028733        -0.914700        -2.134665
 H         3.600349         1.536562        -1.746122
