19
Iteration:  3034charge 0 multiplicity 1
 C         0.070789        -0.292938        -0.408504
 C         1.521737        -0.113042        -0.024362
 C         2.295342        -0.953422         1.124371
 O         3.585896        -0.348563         1.302358
 C         4.124286         0.235997         0.107962
 C         3.844472        -0.812262        -1.032238
 C         2.500800        -0.030111        -1.278527
 C         3.086953         1.251877        -0.610614
 O         1.855957         1.381352         0.272064
 H        -0.244724         0.709577        -0.320170
 H        -0.059852        -0.606232        -1.439024
 H        -0.430762        -1.032123         0.281992
 H         1.761953        -0.796737         2.054216
 H         2.440073        -1.976220         0.925433
 H         5.120385         0.769580         0.310344
 H         4.440117        -0.660018        -1.982110
 H         3.956383        -1.763308        -0.452701
 H         2.043277        -0.052759        -2.282112
 H         3.533167         2.140550        -1.147130
