19
Iteration:  4632
 C         0.081864        -0.395366        -0.159478
 C         1.578008         0.031585        -0.062917
 C         2.172198        -0.055521         1.332125
 O         3.508535         0.415141         1.315893
 C         4.054414         0.125750         0.131523
 C         3.838368        -1.262548        -0.387348
 C         2.529746        -0.664391        -1.094911
 C         3.225711         0.709578        -1.066513
 O         1.949636         1.343134        -0.531404
 H        -0.559998         0.470191        -0.617515
 H        -0.163399        -1.331910        -0.743323
 H        -0.423927        -0.771061         0.834698
 H         1.644822         0.511044         2.058824
 H         1.999945        -1.165977         1.766753
 H         5.118711         0.347858         0.084069
 H         4.673586        -1.386030        -1.041895
 H         3.721732        -2.074700         0.356379
 H         2.014133        -1.076469        -2.042828
 H         3.847242         1.190722        -1.871881
