19
Iteration:   243charge 0 multiplicity 1
 C         0.147500        -0.437322        -0.448808
 C         1.598153        -0.098271        -0.124149
 C         2.247882        -1.110165         0.779452
 O         3.617774        -0.747913         1.072001
 C         4.130219         0.139558         0.143028
 C         3.882155        -0.305744        -1.296285
 C         2.485907         0.430170        -1.224076
 C         3.016564         1.392538        -0.091384
 O         1.811547         1.189246         0.644773
 H        -0.539709        -0.185930         0.319450
 H        -0.028838         0.013283        -1.343858
 H        -0.054634        -1.586449        -0.576512
 H         1.643762        -0.889196         1.657960
 H         2.089729        -2.147436         0.529819
 H         5.207447         0.372116         0.443425
 H         4.611186         0.037743        -1.917485
 H         3.878312        -1.391341        -1.437597
 H         1.956662         0.807540        -2.134198
 H         3.232365         2.455185        -0.179917
