19
Iteration:  1827
 C         0.133579        -0.380308        -0.210269
 C         1.603290        -0.061756        -0.019777
 C         2.106870        -0.755198         1.158538
 O         3.495661        -0.485981         1.262401
 C         4.053089         0.179679         0.165502
 C         4.061210        -0.697208        -1.154363
 C         2.625782         0.012899        -1.327581
 C         3.070576         1.175112        -0.522136
 O         1.814401         1.367590         0.097452
 H        -0.416906         0.062778         0.670413
 H        -0.403262        -0.075503        -1.186269
 H        -0.060842        -1.448487        -0.247463
 H         1.492394        -0.284115         2.030364
 H         2.139753        -1.881374         1.284462
 H         4.939269         0.613822         0.487299
 H         4.795695        -0.361905        -1.995238
 H         4.004212        -1.832904        -0.931194
 H         2.211335        -0.035164        -2.272369
 H         3.447736         2.145126        -1.009431
