19
Iteration:  2445charge 0 multiplicity 1
 C         0.021198        -0.268262        -0.349985
 C         1.612635        -0.077692        -0.064884
 C         2.220097        -0.847690         1.208103
 O         3.625671        -0.472108         1.262818
 C         4.078397         0.226399         0.132953
 C         3.980825        -0.722289        -1.101527
 C         2.526208        -0.093267        -1.232441
 C         3.025306         1.185316        -0.550340
 O         1.810858         1.407098         0.161677
 H        -0.754206         0.035347         0.435092
 H        -0.157132         0.248916        -1.362419
 H        -0.003278        -1.340779        -0.532946
 H         1.798912        -0.645997         2.228747
 H         2.208200        -1.928095         1.159503
 H         5.069056         0.656687         0.473702
 H         4.529446        -0.262336        -1.878775
 H         4.177808        -1.848553        -0.984233
 H         2.104134        -0.112039        -2.240016
 H         3.429839         2.094292        -0.921812
