19
Iteration:  4591
 C         0.086021        -0.282076        -0.107920
 C         1.532020         0.008953        -0.030902
 C         2.147969        -0.080806         1.361581
 O         3.500138         0.287053         1.348899
 C         4.082561         0.203276         0.127602
 C         3.867356        -1.235504        -0.432139
 C         2.629809        -0.717089        -1.152607
 C         3.202156         0.708153        -1.061867
 O         1.879677         1.301841        -0.540292
 H        -0.012508        -0.424863        -1.269667
 H        -0.373127        -1.199142         0.282770
 H        -0.376139         0.687800         0.162221
 H         1.551780         0.635646         2.030338
 H         2.134171        -1.084760         1.703237
 H         5.105593         0.711295         0.241951
 H         4.696630        -1.389009        -1.188813
 H         4.052141        -2.136608         0.084276
 H         1.869688        -1.098655        -1.963227
 H         3.663069         1.320485        -1.816895
