19
Iteration:  1384charge 0 multiplicity 1
 C         0.187274        -0.411595        -0.500894
 C         1.622353        -0.084004        -0.002433
 C         2.254683        -0.922416         1.119406
 O         3.549402        -0.298306         1.303644
 C         4.094111         0.182085         0.083605
 C         3.774817        -0.784547        -1.104998
 C         2.525849         0.079510        -1.282651
 C         3.008992         1.263867        -0.485083
 O         1.907468         1.335062         0.361857
 H         0.105294        -0.851781        -1.434135
 H        -0.514854        -0.940478         0.196406
 H        -0.270736         0.559632        -0.584878
 H         1.605910        -0.963642         1.888141
 H         2.255886        -1.928688         0.581509
 H         5.141124         0.516318         0.275851
 H         4.594459        -0.587880        -1.775290
 H         3.753728        -1.857753        -0.766165
 H         1.957932         0.112670        -2.385066
 H         3.410486         2.172415        -0.884016
