19
Iteration:  2065charge 0 multiplicity 1
 C         0.012994        -0.418562        -0.282734
 C         1.529756        -0.063001        -0.087223
 C         2.154768        -0.737888         1.184568
 O         3.597745        -0.456935         1.313225
 C         4.120030         0.172703         0.153380
 C         4.040610        -0.710970        -1.063023
 C         2.551313        -0.077529        -1.311145
 C         3.077680         1.191315        -0.556316
 O         1.840730         1.410255         0.125380
 H        -0.431386        -0.441858         0.738920
 H        -0.462860         0.444082        -0.833917
 H         0.051758        -1.299656        -0.884107
 H         1.549585        -0.335805         1.886862
 H         1.809693        -1.799760         1.075636
 H         5.136024         0.552080         0.446628
 H         4.753045        -0.261370        -1.812966
 H         4.153466        -1.772681        -1.022315
 H         2.080585        -0.018320        -2.310202
 H         3.464047         2.093268        -1.079579
