19
Iteration:  1755charge 0 multiplicity 1
 C         0.126762        -0.267321        -0.378465
 C         1.619715        -0.125407        -0.099750
 C         2.290908        -0.915283         1.046981
 O         3.499690        -0.210025         1.377201
 C         4.120001         0.231608         0.144590
 C         3.843705        -0.821648        -1.085283
 C         2.529434        -0.047994        -1.324891
 C         3.028338         1.224025        -0.576359
 O         1.890950         1.262196         0.321123
 H        -0.484305         0.384908         0.177902
 H        -0.043836        -0.197167        -1.467365
 H        -0.344284        -1.292865        -0.240122
 H         1.763698        -0.729632         2.079866
 H         2.345956        -1.979897         0.864915
 H         5.232122         0.488484         0.344032
 H         4.574267        -0.613819        -1.783500
 H         3.847670        -1.890920        -0.868898
 H         1.897787         0.174834        -2.319533
 H         3.219669         2.177466        -1.002790
