19
Iteration:  1258charge 0 multiplicity 1
 C         0.186522        -0.329052        -0.425512
 C         1.567770        -0.113227        -0.062162
 C         2.313778        -0.976285         0.993485
 O         3.576861        -0.381373         1.308463
 C         4.067055         0.208019         0.154708
 C         3.830536        -0.661307        -1.139625
 C         2.507463         0.077222        -1.386923
 C         3.042373         1.231231        -0.412360
 O         1.865107         1.297300         0.428356
 H        -0.711846        -0.324383         0.371497
 H        -0.110161         0.420183        -1.186638
 H         0.101894        -1.400619        -0.877323
 H         1.555463        -0.830638         1.950387
 H         2.362711        -2.039837         0.698900
 H         5.041383         0.582011         0.447815
 H         4.496070        -0.466704        -2.001269
 H         3.680886        -1.700516        -1.208301
 H         1.861079         0.316907        -2.263373
 H         3.433261         2.237483        -0.696158
