19
Iteration:   717
 C         0.138270        -0.369708        -0.251393
 C         1.566768        -0.075854        -0.067670
 C         2.183102        -1.023898         1.001933
 O         3.531384        -0.675364         1.170866
 C         4.074069         0.194949         0.173588
 C         4.030540        -0.455648        -1.171733
 C         2.631946         0.188506        -1.430898
 C         3.039529         1.239932        -0.331463
 O         1.753495         1.369968         0.349388
 H        -0.052339        -1.275765        -0.919322
 H        -0.354644        -0.697542         0.822713
 H        -0.295679         0.557866        -0.619677
 H         1.710489        -1.017224         1.913239
 H         1.968091        -1.980342         0.560524
 H         4.971348         0.663640         0.540567
 H         4.784901        -0.022336        -1.978063
 H         4.101332        -1.568622        -1.145270
 H         2.204033         0.249497        -2.311521
 H         3.394493         2.279677        -0.582191
