19
Iteration:  2595charge 0 multiplicity 1
 C         0.059568        -0.295486        -0.328308
 C         1.601013        -0.128424        -0.023622
 C         2.134630        -0.850245         1.113181
 O         3.564214        -0.506413         1.277145
 C         4.197619         0.205208         0.120493
 C         3.969346        -0.651857        -1.199858
 C         2.596665        -0.028387        -1.235678
 C         3.057802         1.228363        -0.524374
 O         1.761742         1.358446         0.265296
 H        -0.109715        -0.406263        -1.459099
 H        -0.228061        -1.219958         0.290179
 H        -0.458899         0.648573        -0.042787
 H         1.725280        -0.564309         2.100774
 H         2.214335        -2.017040         0.926952
 H         5.100530         0.523098         0.562970
 H         4.489593        -0.089106        -2.076321
 H         4.180653        -1.757301        -1.149789
 H         2.049042         0.076097        -2.155145
 H         3.384224         2.107049        -1.062640
