19
Iteration:   769charge 0 multiplicity 1
 C         0.115483        -0.309911        -0.460132
 C         1.582403        -0.092039        -0.054191
 C         2.314800        -1.107560         0.913687
 O         3.552459        -0.407581         1.279263
 C         4.041879         0.236225         0.122232
 C         3.904993        -0.677896        -1.191133
 C         2.556839         0.170700        -1.274685
 C         3.035604         1.346372        -0.357758
 O         1.865880         1.246148         0.512165
 H         0.085632        -0.578601        -1.559491
 H        -0.172072        -1.165317        -0.032920
 H        -0.545169         0.510254        -0.300772
 H         1.691300        -1.289319         1.858144
 H         2.323346        -2.136750         0.430065
 H         5.041916         0.557800         0.328352
 H         4.442926        -0.437083        -2.061193
 H         3.588465        -1.722678        -1.088748
 H         1.948039         0.381331        -2.297365
 H         3.246440         2.361573        -0.626265
