19
Iteration:   313charge 0 multiplicity 1
 C         0.108991        -0.305283        -0.256576
 C         1.585034        -0.081116        -0.124073
 C         2.240450        -1.148968         0.709531
 O         3.580280        -0.786167         1.133955
 C         4.064748         0.272506         0.229903
 C         4.026772        -0.297480        -1.270498
 C         2.569578         0.361330        -1.338072
 C         2.982420         1.292868        -0.215348
 O         1.781420         1.136345         0.573800
 H        -0.366682        -1.096273         0.395207
 H        -0.358239         0.753389        -0.288828
 H        -0.180862        -0.732909        -1.177009
 H         1.679839        -1.082239         1.750960
 H         2.220628        -2.217432         0.306884
 H         5.034371         0.655729         0.505634
 H         4.763013         0.038844        -2.043019
 H         4.174621        -1.375756        -1.246020
 H         1.990648         0.635073        -2.310079
 H         3.282797         2.363908        -0.354804
