19
Iteration:  4822charge 0 multiplicity 1
 C         0.063078        -0.258626        -0.098457
 C         1.566063         0.010209        -0.110548
 C         2.096007         0.091996         1.343094
 O         3.591837         0.448706         1.431064
 C         4.126718         0.177805         0.121171
 C         3.864158        -1.365549        -0.242493
 C         2.597197        -0.874479        -1.065481
 C         3.135533         0.732987        -1.145385
 O         1.881361         1.231310        -0.735510
 H        -0.294489         0.143570        -1.132897
 H        -0.271429        -1.383784        -0.019821
 H        -0.415176         0.492897         0.608058
 H         1.597073         0.826339         2.027191
 H         1.992731        -0.883809         1.847595
 H         5.155793         0.579460         0.080545
 H         4.658715        -1.690569        -0.947823
 H         3.822460        -2.118510         0.469652
 H         2.192382        -1.374030        -2.017021
 H         3.572271         1.063366        -2.024363
