19
Iteration:  1659charge 0 multiplicity 1
 C         0.150725        -0.400792        -0.375220
 C         1.547398        -0.054745        -0.040012
 C         2.186020        -0.773953         1.142354
 O         3.545682        -0.239214         1.330623
 C         4.140613         0.189498         0.088934
 C         3.843387        -0.795363        -1.084169
 C         2.539817        -0.054525        -1.321817
 C         3.111218         1.221661        -0.532978
 O         1.881377         1.288197         0.255652
 H        -0.315506        -1.051149         0.425210
 H        -0.465808         0.436341        -0.686490
 H        -0.011202        -1.027519        -1.322544
 H         1.365752        -0.529748         1.938240
 H         2.341421        -1.870502         0.977142
 H         5.217934         0.422077         0.447551
 H         4.708993        -0.875736        -1.877885
 H         3.594285        -1.869991        -0.938962
 H         2.108235         0.109628        -2.199861
 H         3.359416         2.187500        -0.989931
