19
Iteration:  1799charge 0 multiplicity 1
 C         0.043007        -0.430247        -0.283840
 C         1.567463        -0.037764        -0.106456
 C         2.167387        -0.774074         1.020059
 O         3.581279        -0.427485         1.334207
 C         4.143046         0.143442         0.190402
 C         3.924113        -0.671533        -1.059731
 C         2.562191         0.004573        -1.291354
 C         3.065917         1.189742        -0.543183
 O         1.857266         1.403479         0.178451
 H        -0.459247         0.205466         0.401458
 H        -0.316658        -0.443362        -1.302923
 H        -0.095293        -1.444684         0.231624
 H         1.518371        -0.565506         1.894045
 H         2.330320        -1.808166         0.915327
 H         5.209618         0.509067         0.460771
 H         4.579180        -0.541784        -1.853321
 H         3.847229        -1.743309        -0.937669
 H         2.244413        -0.216691        -2.394183
 H         3.412050         2.037901        -1.055675
