19
Iteration:  3174
 C         0.084174        -0.292209        -0.217060
 C         1.553238        -0.078716        -0.055749
 C         2.156197        -0.785857         1.115404
 O         3.535474        -0.369379         1.251396
 C         4.183076         0.209349         0.101774
 C         3.956132        -0.762920        -1.091666
 C         2.525452        -0.157404        -1.308254
 C         3.095005         1.194542        -0.563797
 O         1.846140         1.337975         0.193457
 H        -0.488836        -0.204969         0.685576
 H        -0.365004         0.588786        -0.723490
 H        -0.090619        -1.196602        -0.889626
 H         1.755625        -0.358149         2.051305
 H         2.139591        -1.911773         1.046663
 H         5.089063         0.669628         0.610065
 H         4.688073        -0.323465        -1.812338
 H         4.117004        -1.794546        -0.786937
 H         1.926802        -0.327612        -2.272306
 H         3.446914         2.125134        -1.125625
