19
Iteration:  1141
 C         0.021891        -0.317380        -0.428656
 C         1.570542        -0.121705        -0.058495
 C         2.302488        -1.067761         0.981775
 O         3.545695        -0.347699         1.290273
 C         4.116505         0.223562         0.127006
 C         3.844135        -0.611930        -1.154258
 C         2.543396         0.132852        -1.299491
 C         3.027312         1.286524        -0.427754
 O         1.906030         1.216433         0.469962
 H        -0.426302         0.657752        -0.199327
 H         0.057131        -0.509835        -1.539545
 H        -0.279244        -1.126417         0.206596
 H         1.708647        -1.266163         1.816243
 H         2.519058        -2.075370         0.444589
 H         5.197953         0.414236         0.261823
 H         4.656113        -0.339747        -1.950415
 H         3.761272        -1.826299        -1.246688
 H         2.153886         0.281487        -2.451346
 H         3.270593         2.289992        -0.698686
