19
Iteration:  4531charge 0 multiplicity 1
 C         0.154817        -0.335221        -0.164330
 C         1.596785        -0.020757        -0.117880
 C         2.104048        -0.183973         1.286773
 O         3.476055         0.392836         1.389523
 C         4.107747         0.166989         0.093651
 C         3.847639        -1.269691        -0.528179
 C         2.522458        -0.664298        -1.132477
 C         3.164486         0.745543        -0.982798
 O         1.950458         1.369384        -0.403626
 H        -0.074106        -1.297422         0.273052
 H        -0.325683         0.566392         0.355188
 H        -0.272633        -0.427850        -1.208893
 H         1.517874         0.294898         2.038938
 H         2.267337        -1.264147         1.626527
 H         5.117041         0.526593         0.052593
 H         4.528970        -1.453587        -1.308569
 H         3.802841        -1.992970         0.305300
 H         1.922344        -1.028661        -1.927261
 H         3.680802         1.329488        -1.787913
