19
Iteration:   969
 C         0.140569        -0.442981        -0.213527
 C         1.564349        -0.064189        -0.103664
 C         2.155068        -0.956202         0.981051
 O         3.550334        -0.677332         1.191725
 C         4.113217         0.184325         0.170500
 C         3.974331        -0.490837        -1.213952
 C         2.647603         0.156984        -1.362701
 C         3.020056         1.310656        -0.352594
 O         1.772657         1.368098         0.314505
 H        -0.185394         0.003803        -1.108762
 H         0.016415        -1.552806        -0.185191
 H        -0.429747        -0.044669         0.598445
 H         1.646358        -0.709056         1.942734
 H         2.032489        -1.958534         0.703045
 H         5.084561         0.552713         0.582662
 H         4.680196        -0.159359        -1.896216
 H         4.051447        -1.523166        -1.233341
 H         1.923951         0.343923        -2.306618
 H         3.591035         2.303170        -0.387623
