19
Iteration:   411
 C         0.115456        -0.377476        -0.439442
 C         1.581286        -0.064795        -0.085733
 C         2.315601        -1.121952         0.727662
 O         3.579212        -0.587719         1.243340
 C         4.054430         0.185039         0.105324
 C         3.851346        -0.441068        -1.305174
 C         2.565980         0.349189        -1.304324
 C         3.008548         1.283350        -0.166127
 O         1.849151         1.189908         0.668602
 H         0.164352        -1.433716        -0.840621
 H        -0.655993        -0.303378         0.407255
 H        -0.372355         0.243660        -1.155172
 H         1.611917        -1.246512         1.656272
 H         2.414660        -2.046267         0.284781
 H         5.073194         0.525939         0.391160
 H         4.593029        -0.023800        -1.971945
 H         3.791029        -1.485388        -1.458754
 H         2.063167         0.803019        -2.287075
 H         3.515975         2.263717        -0.312940
