19
Iteration:  4767charge 0 multiplicity 1
 C         0.005676        -0.370060        -0.173964
 C         1.586806        -0.015842        -0.092463
 C         2.198870         0.009527         1.328828
 O         3.487679         0.535286         1.282595
 C         4.139030         0.113974         0.117758
 C         3.796873        -1.293377        -0.308985
 C         2.521170        -0.799017        -1.009129
 C         3.204962         0.719655        -1.072613
 O         1.992815         1.309347        -0.587584
 H        -0.049225        -1.438454        -0.583620
 H        -0.479357        -0.257253         0.864593
 H        -0.496514         0.409717        -0.781798
 H         1.580862         0.734987         1.940421
 H         2.168234        -1.010521         1.865662
 H         5.157213         0.492790        -0.016160
 H         4.450410        -1.632910        -1.109075
 H         3.632304        -2.006315         0.407830
 H         2.070842        -1.581618        -1.719433
 H         3.804523         1.112759        -1.820113
