19
Iteration:  3979
 C         0.052061        -0.289043        -0.225104
 C         1.535947        -0.024992         0.037553
 C         2.161712        -0.664580         1.248425
 O         3.615447        -0.169722         1.369092
 C         4.121837         0.209230         0.077729
 C         3.910796        -0.928481        -0.855109
 C         2.540863        -0.320016        -1.190869
 C         3.044671         1.064002        -0.836189
 O         1.881259         1.449899        -0.121302
 H        -0.051327        -0.006836        -1.231183
 H        -0.073755        -1.301712        -0.485878
 H        -0.715602         0.155882         0.427322
 H         1.665709        -0.208349         2.126087
 H         2.138711        -1.705370         1.437170
 H         5.100862         0.550491         0.210588
 H         4.658149        -1.136265        -1.712648
 H         4.148876        -1.926438        -0.400573
 H         2.212006        -0.491972        -2.238785
 H         3.517167         1.735601        -1.507035
