19
Iteration:  2795charge 0 multiplicity 1
 C         0.123698        -0.346636        -0.391850
 C         1.580885        -0.019123        -0.019808
 C         2.229854        -0.798585         1.113150
 O         3.599302        -0.409411         1.292196
 C         4.100166         0.261068         0.094258
 C         3.859197        -0.694592        -1.065496
 C         2.506926        -0.080643        -1.311883
 C         3.054924         1.186468        -0.500526
 O         1.854751         1.280771         0.247136
 H        -0.200361         0.671175        -0.670646
 H         0.023584        -1.028007        -1.328200
 H        -0.510437        -0.758643         0.495158
 H         1.742792        -0.494598         2.053409
 H         2.040699        -1.831444         1.004073
 H         5.166061         0.598460         0.323956
 H         4.558606        -0.731856        -1.936369
 H         4.024551        -1.790876        -0.701920
 H         1.970273        -0.105660        -2.240756
 H         3.416292         2.122485        -0.966717
