19
Iteration:   799charge 0 multiplicity 1
 C         0.133816        -0.370530        -0.402706
 C         1.596797        -0.079444        -0.126202
 C         2.228058        -0.988924         0.948580
 O         3.620396        -0.564377         1.261788
 C         4.071641         0.173730         0.174634
 C         3.905054        -0.549940        -1.195823
 C         2.544207         0.168428        -1.290287
 C         3.040983         1.274187        -0.311112
 O         1.793359         1.311985         0.411380
 H        -0.029306        -0.405590        -1.486885
 H        -0.006739        -1.413947         0.080436
 H        -0.656918         0.350280         0.019727
 H         1.670466        -0.693950         1.952268
 H         2.227067        -2.034740         0.695390
 H         5.130460         0.579324         0.259374
 H         4.495673        -0.128347        -1.954856
 H         3.879880        -1.673554        -1.222582
 H         1.977777         0.388699        -2.362494
 H         3.409943         2.222652        -0.633819
