19
Iteration:  3024
 C         0.103769        -0.317199        -0.391453
 C         1.625997        -0.130663        -0.033716
 C         2.281664        -0.939214         1.043037
 O         3.531453        -0.298387         1.342688
 C         4.131174         0.264837         0.029702
 C         3.804726        -0.753684        -1.028366
 C         2.513160        -0.017660        -1.238389
 C         3.036290         1.186349        -0.544679
 O         1.927330         1.397783         0.278580
 H        -0.458704         0.591281        -0.372455
 H         0.057764        -0.675445        -1.400819
 H        -0.587932        -0.995540         0.216958
 H         1.714614        -0.890355         1.969108
 H         2.408907        -1.960833         0.826180
 H         5.209707         0.500226         0.349185
 H         4.383034        -1.139015        -1.854522
 H         3.630802        -1.836195        -0.670642
 H         2.132492        -0.107658        -2.235236
 H         3.176179         2.109098        -1.122716
