19
Iteration:  4248charge 0 multiplicity 1
 C         0.003574        -0.309867        -0.132061
 C         1.528855        -0.026212        -0.041057
 C         2.163089        -0.415162         1.321838
 O         3.514239         0.015414         1.393483
 C         4.143607         0.232379         0.116112
 C         3.917555        -1.124968        -0.711684
 C         2.647154        -0.485338        -1.214995
 C         3.110729         1.010861        -0.951247
 O         1.916637         1.386308        -0.320459
 H        -0.569364         0.536017        -0.347422
 H        -0.150559        -1.080839        -0.874137
 H        -0.335306        -0.760591         0.781213
 H         1.568163         0.221959         2.070647
 H         1.981423        -1.500014         1.611891
 H         5.215838         0.628035         0.236343
 H         4.543864        -1.134797        -1.661463
 H         3.803287        -2.103707        -0.081756
 H         2.210206        -0.831065        -2.214467
 H         3.630386         1.720046        -1.676362
