19
Iteration:  4184
 C         0.112500        -0.369175        -0.228754
 C         1.589262        -0.057682         0.012187
 C         2.164425        -0.464400         1.330602
 O         3.467039         0.156105         1.333652
 C         4.102554         0.178052         0.066811
 C         3.808677        -1.098941        -0.775912
 C         2.589493        -0.380655        -1.288479
 C         3.163224         0.887192        -0.864601
 O         1.927204         1.395576        -0.132741
 H        -0.005312        -0.869667        -1.164013
 H        -0.373929        -0.984963         0.529390
 H        -0.427566         0.636647        -0.189379
 H         1.741173         0.013318         2.257364
 H         2.237206        -1.482421         1.593085
 H         5.101863         0.487926         0.199574
 H         4.552043        -1.359639        -1.591670
 H         3.810857        -2.107187        -0.332161
 H         2.159889        -0.457694        -2.353600
 H         3.497643         1.670244        -1.524804
