19
Iteration:  2850charge 0 multiplicity 1
 C         0.115819        -0.391553        -0.241688
 C         1.563270        -0.008190        -0.122714
 C         2.113753        -0.827724         1.056361
 O         3.587186        -0.477479         1.277007
 C         4.137231         0.238634         0.171908
 C         3.985279        -0.739516        -1.159315
 C         2.558523        -0.034414        -1.282461
 C         3.048063         1.207005        -0.449040
 O         1.827916         1.390122         0.189888
 H        -0.339881        -0.219487        -1.207215
 H        -0.023203        -1.479189         0.011155
 H        -0.525043         0.153276         0.560501
 H         1.700646        -0.500229         2.011249
 H         2.065568        -1.883846         0.967021
 H         5.144675         0.693896         0.482101
 H         4.478212        -0.413110        -2.058769
 H         3.984969        -1.838346        -0.908134
 H         2.151051         0.265201        -2.219315
 H         3.423454         1.976808        -1.114605
