19
Iteration:  2573
 C         0.034259        -0.335219        -0.394624
 C         1.494731        -0.131851        -0.071438
 C         2.105008        -0.758849         1.198037
 O         3.649883        -0.479995         1.221672
 C         4.043153         0.209418         0.120298
 C         4.015535        -0.602213        -1.184450
 C         2.560098        -0.019170        -1.324430
 C         3.025931         1.161787        -0.471748
 O         1.920362         1.281956         0.341998
 H        -0.154342        -0.087411        -1.480234
 H        -0.394483        -1.339462        -0.077771
 H        -0.477250         0.539944         0.094933
 H         1.931773        -0.257841         2.115955
 H         2.111816        -1.907209         1.308391
 H         5.013947         0.459845         0.384585
 H         4.652921        -0.166898        -2.058303
 H         4.247738        -1.667694        -0.943975
 H         2.104654        -0.085434        -2.290331
 H         3.459287         2.074770        -0.857052
