19
Iteration:   336charge 0 multiplicity 1
 C         0.094958        -0.369823        -0.278283
 C         1.548176        -0.139419        -0.103455
 C         2.152352        -1.212085         0.843479
 O         3.559967        -0.771462         1.045202
 C         4.096646         0.206176         0.194132
 C         4.014607        -0.246111        -1.258209
 C         2.632651         0.310866        -1.293558
 C         2.987957         1.347884        -0.178557
 O         1.827360         1.274450         0.503749
 H        -0.234003        -1.278828         0.277769
 H        -0.471198         0.655716         0.020700
 H        -0.300019        -0.599385        -1.188907
 H         1.724850        -1.302471         1.938539
 H         2.253252        -2.262780         0.398793
 H         5.063362         0.496617         0.564449
 H         4.693042         0.440021        -1.901525
 H         4.270769        -1.227461        -1.611964
 H         2.125195         0.563109        -2.271110
 H         3.311601         2.372129        -0.439232
