19
Iteration:  3131charge 0 multiplicity 1
 C         0.083299        -0.321174        -0.344222
 C         1.609606        -0.063740         0.014017
 C         2.308654        -0.873481         1.128705
 O         3.566097        -0.279699         1.341467
 C         4.109262         0.192481         0.131389
 C         3.776922        -0.802629        -1.042928
 C         2.519287        -0.033186        -1.348323
 C         3.078457         1.205872        -0.574423
 O         1.848991         1.346719         0.196529
 H        -0.496848         0.484316         0.043717
 H         0.103008        -0.222888        -1.433510
 H        -0.267823        -1.374866        -0.167609
 H         1.835803        -0.930062         2.133588
 H         2.438879        -1.978665         0.724897
 H         5.239432         0.288864         0.126488
 H         4.382017        -0.623107        -1.950338
 H         3.555694        -1.836773        -0.762689
 H         2.208686        -0.072729        -2.426230
 H         3.496146         2.239838        -0.787649
