19
Iteration:  2724charge 0 multiplicity 1
 C         0.041899        -0.353790        -0.237731
 C         1.543507        -0.120599        -0.090206
 C         2.153470        -0.769323         1.088536
 O         3.580224        -0.483031         1.304834
 C         4.138320         0.184787         0.149952
 C         4.023482        -0.661688        -1.150616
 C         2.552244        -0.033608        -1.339042
 C         3.039992         1.231723        -0.539553
 O         1.852689         1.368203         0.242058
 H        -0.267234         0.070957        -1.203571
 H        -0.218053        -1.402316        -0.313143
 H        -0.521962         0.019752         0.586905
 H         1.552000        -0.631787         1.982456
 H         2.231450        -1.861206         0.996677
 H         5.070065         0.560811         0.527977
 H         4.681194        -0.598482        -2.007373
 H         4.013861        -1.648633        -0.857266
 H         2.155434         0.121176        -2.383809
 H         3.426802         2.164427        -0.981842
