19
Iteration:  2127
 C         0.020465        -0.409154        -0.370843
 C         1.620906        -0.035751        -0.032933
 C         2.222813        -0.844379         1.071225
 O         3.556444        -0.286827         1.383268
 C         4.069157         0.225702         0.097114
 C         3.883595        -0.822920        -1.010903
 C         2.561226        -0.001277        -1.324457
 C         3.123000         1.217637        -0.583727
 O         1.897957         1.344389         0.221228
 H        -0.696497        -0.600515         0.439458
 H        -0.428782         0.246122        -1.103272
 H         0.012882        -1.363798        -0.834433
 H         1.722967        -0.719281         2.099506
 H         2.353394        -1.836452         0.822696
 H         5.119069         0.498798         0.423631
 H         4.536572        -0.750085        -1.865256
 H         3.678801        -1.945142        -0.814290
 H         2.021401         0.096608        -2.325511
 H         3.364402         2.191374        -0.982544
