19
Iteration:   922
 C         0.168116        -0.398599        -0.423155
 C         1.626034        -0.075959        -0.083066
 C         2.209803        -0.975163         1.095184
 O         3.562490        -0.538398         1.225460
 C         4.064984         0.178081         0.107125
 C         3.870733        -0.557359        -1.239208
 C         2.567560         0.166062        -1.270902
 C         3.044646         1.292654        -0.368283
 O         1.827598         1.306921         0.405392
 H        -0.348097         0.599065        -0.779621
 H         0.023522        -1.191940        -1.152368
 H        -0.322519        -0.828558         0.487254
 H         1.630205        -0.782677         2.103285
 H         2.182821        -1.940704         0.711439
 H         5.022747         0.491622         0.479208
 H         4.590109        -0.277668        -1.932168
 H         3.944492        -1.664597        -1.157958
 H         2.033743         0.171803        -2.271038
 H         3.343720         2.256160        -0.715367
