19
Iteration:  3868
 C         0.170582        -0.263625        -0.289956
 C         1.529537        -0.064464         0.019188
 C         2.123383        -0.666601         1.311188
 O         3.589129        -0.182321         1.363993
 C         4.150297         0.225696         0.060244
 C         3.875467        -0.926384        -0.959556
 C         2.573139        -0.316817        -1.246289
 C         3.034310         1.100873        -0.774582
 O         1.888209         1.374488        -0.022386
 H        -0.135944        -1.274570         0.030984
 H        -0.390322         0.446330         0.289952
 H        -0.103351        -0.034867        -1.352485
 H         1.547299        -0.310602         2.230952
 H         2.033951        -1.854248         1.426633
 H         5.052796         0.713425         0.252078
 H         4.524498        -0.601298        -1.893732
 H         3.920101        -1.993257        -0.629988
 H         2.041337        -0.442784        -2.199984
 H         3.359383         1.906783        -1.395575
