19
Iteration:  3746
 C         0.101677        -0.287218        -0.329793
 C         1.557870        -0.064442        -0.031239
 C         2.229901        -0.592082         1.256424
 O         3.556393        -0.137528         1.375802
 C         4.099073         0.220190         0.083411
 C         3.993234        -0.967337        -1.007888
 C         2.481125        -0.268792        -1.313193
 C         3.039803         1.038120        -0.708263
 O         1.893250         1.337047         0.092505
 H        -0.279304        -0.901036         0.470817
 H        -0.549425         0.641629        -0.244300
 H        -0.098386        -0.636706        -1.319964
 H         1.540570        -0.228543         2.030493
 H         2.024000        -1.566946         1.324198
 H         5.102597         0.643994         0.254311
 H         4.763590        -0.938083        -1.939292
 H         3.837983        -1.944460        -0.510828
 H         1.910765        -0.480240        -2.213680
 H         3.489209         1.970634        -1.069079
