19
Iteration:   727
 C         0.080171        -0.338390        -0.271432
 C         1.589679        -0.085242        -0.106334
 C         2.173022        -1.079748         0.963431
 O         3.543083        -0.623495         1.250278
 C         4.100137         0.217036         0.206297
 C         3.955220        -0.480837        -1.255381
 C         2.640154         0.181772        -1.325161
 C         3.018705         1.305243        -0.383594
 O         1.819279         1.304455         0.337798
 H        -0.150091        -1.052297        -1.153793
 H        -0.249586        -0.865504         0.689953
 H        -0.537903         0.543583        -0.443224
 H         1.567965        -1.002939         1.875165
 H         2.267424        -2.163774         0.744450
 H         5.041211         0.633155         0.490047
 H         4.795772         0.067095        -1.832800
 H         4.119874        -1.582319        -1.150915
 H         2.133851         0.308530        -2.217265
 H         3.490229         2.263029        -0.670666
