19
Iteration:  2888
 C         0.129851        -0.339599        -0.279022
 C         1.580434        -0.053281        -0.114686
 C         2.312051        -0.973451         0.964941
 O         3.515134        -0.257680         1.426539
 C         4.074525         0.242014         0.168810
 C         3.765886        -0.790420        -1.156585
 C         2.554143         0.043659        -1.331083
 C         3.106090         1.174574        -0.533991
 O         1.896447         1.299543         0.273179
 H        -0.190799        -0.441970        -1.353196
 H        -0.130658        -1.190434         0.359083
 H        -0.358764         0.460991         0.195935
 H         1.556906        -0.931448         1.747364
 H         2.482293        -1.962948         0.603092
 H         5.064973         0.460875         0.407526
 H         4.576063        -0.658280        -1.951930
 H         3.810603        -1.811682        -0.864136
 H         2.105054         0.253530        -2.358818
 H         3.188241         2.202310        -0.921990
