19
Iteration:  3633
 C         0.094225        -0.359349        -0.376757
 C         1.517992         0.004264        -0.019802
 C         2.237968        -0.624907         1.244932
 O         3.665898        -0.147280         1.414330
 C         4.086231         0.217716         0.027886
 C         3.964779        -1.021856        -0.865555
 C         2.430619        -0.373063        -1.260222
 C         2.985584         1.099196        -0.721637
 O         1.871303         1.501650         0.027742
 H         0.187496        -1.229507        -1.024948
 H        -0.607234        -0.449357         0.388458
 H        -0.298943         0.565339        -0.871490
 H         1.744046        -0.220922         2.174539
 H         2.175748        -1.735823         1.233393
 H         5.196547         0.479121         0.328188
 H         4.557238        -0.877921        -1.919552
 H         4.016340        -2.074928        -0.399417
 H         2.089214        -0.652476        -2.274243
 H         3.499184         1.924492        -1.381779
