19
Iteration:   473
 C        -0.012034        -0.353271        -0.322509
 C         1.550130        -0.113139        -0.077748
 C         2.218058        -1.078817         0.905905
 O         3.592706        -0.759354         1.073355
 C         4.103956         0.204246         0.177210
 C         4.037746        -0.308861        -1.225358
 C         2.647501         0.280345        -1.318116
 C         2.981135         1.319450        -0.248494
 O         1.804670         1.220658         0.502386
 H        -0.365500        -0.401051        -1.409979
 H        -0.152751        -1.295445         0.146737
 H        -0.606236         0.549793         0.153553
 H         1.739155        -1.000223         1.818999
 H         2.210916        -2.193508         0.469513
 H         5.102519         0.652684         0.432892
 H         4.803268         0.098069        -1.900163
 H         4.044522        -1.466069        -1.378924
 H         2.193025         0.575845        -2.177914
 H         3.318631         2.373039        -0.379469
