19
Iteration:   438
 C         0.103392        -0.338682        -0.350714
 C         1.578469        -0.108347        -0.043577
 C         2.207930        -1.122707         0.799756
 O         3.566708        -0.744318         1.102078
 C         4.145638         0.209597         0.197379
 C         3.957100        -0.298736        -1.237230
 C         2.594146         0.260489        -1.222278
 C         2.988120         1.333350        -0.246092
 O         1.806196         1.239061         0.476903
 H        -0.051096        -1.067506        -1.127995
 H        -0.409077        -0.824132         0.595291
 H        -0.541973         0.622881        -0.347611
 H         1.686908        -1.272041         1.736509
 H         2.110750        -2.203161         0.309638
 H         5.172977         0.479773         0.557121
 H         4.538012         0.361044        -1.950947
 H         4.087921        -1.423210        -1.468767
 H         2.110644         0.595795        -2.063126
 H         3.395362         2.271527        -0.591999
