19
Iteration:  3623charge 0 multiplicity 1
 C         0.105725        -0.333304        -0.400215
 C         1.563757        -0.115679         0.002128
 C         2.241090        -0.600765         1.221595
 O         3.617493        -0.127380         1.404788
 C         4.121080         0.245091         0.021068
 C         3.833041        -0.989573        -0.834670
 C         2.503389        -0.359924        -1.213989
 C         3.038431         1.091424        -0.784100
 O         1.886127         1.468894         0.076780
 H         0.030562        -1.114495        -1.165263
 H        -0.574941        -0.615034         0.368908
 H        -0.097726         0.603952        -0.909197
 H         1.645012        -0.276789         2.124611
 H         2.128990        -1.775461         1.296443
 H         5.172149         0.718550        -0.114574
 H         4.441327        -0.992462        -1.876455
 H         3.965653        -2.012881        -0.374079
 H         1.895784        -0.534716        -2.110253
 H         3.423965         1.987803        -1.411000
