19
Iteration:  3451
 C         0.036192        -0.380332        -0.156200
 C         1.561547        -0.013058        -0.112454
 C         2.202554        -0.716873         1.158764
 O         3.567649        -0.242714         1.363778
 C         4.118696         0.186392         0.136050
 C         3.881965        -0.912970        -0.912206
 C         2.600186        -0.189373        -1.286083
 C         3.103402         1.129084        -0.740261
 O         1.837950         1.474900        -0.037716
 H        -0.349604        -0.074071         0.860443
 H        -0.461402         0.006778        -1.119607
 H         0.011390        -1.488643        -0.147330
 H         1.574345        -0.297950         1.956845
 H         2.174442        -1.808812         1.045192
 H         5.151878         0.533564         0.379299
 H         4.687793        -1.059672        -1.612768
 H         3.795716        -1.904565        -0.403545
 H         2.261317        -0.100024        -2.302497
 H         3.572694         1.943948        -1.261677
