19
Iteration:  1716
 C         0.104675        -0.363541        -0.228691
 C         1.560419        -0.087225        -0.032663
 C         2.175556        -0.827188         1.143116
 O         3.512310        -0.494171         1.264027
 C         4.120749         0.206561         0.168562
 C         4.051404        -0.738974        -1.067984
 C         2.566573        -0.062065        -1.265126
 C         3.068714         1.253500        -0.593103
 O         1.794202         1.440375         0.090197
 H        -0.476549        -0.149180         0.747350
 H        -0.260248         0.397906        -0.886886
 H         0.032127        -1.382826        -0.611230
 H         1.454061        -0.583766         1.912189
 H         2.140762        -1.976519         1.019666
 H         5.027079         0.598153         0.627051
 H         4.620255        -0.302735        -1.997063
 H         4.125414        -1.829148        -0.954197
 H         2.169316        -0.005666        -2.237178
 H         3.448662         2.208815        -1.107300
