19
Iteration:  1356charge 0 multiplicity 1
 C         0.132395        -0.403804        -0.363251
 C         1.576739        -0.017190        -0.080514
 C         2.197761        -0.884678         1.097677
 O         3.620476        -0.454608         1.264003
 C         4.129351         0.220220         0.156485
 C         3.843145        -0.718346        -1.115248
 C         2.539698         0.078844        -1.338941
 C         3.052561         1.221328        -0.429693
 O         1.827474         1.336157         0.276674
 H         0.064662        -1.405177        -0.967879
 H        -0.481636        -0.505587         0.525103
 H        -0.427858         0.264193        -1.115567
 H         1.498454        -0.616493         2.008695
 H         2.031634        -1.914078         0.875612
 H         5.118769         0.624500         0.372724
 H         4.644194        -0.418676        -1.828438
 H         3.951832        -1.759641        -0.890988
 H         2.227469         0.140226        -2.286869
 H         3.510745         2.218057        -0.785055
