19
Iteration:   453charge 0 multiplicity 1
 C         0.143915        -0.332840        -0.236700
 C         1.595244        -0.083854        -0.142192
 C         2.201954        -1.106126         0.839466
 O         3.598217        -0.837633         1.078042
 C         4.043334         0.264578         0.205941
 C         4.053519        -0.320888        -1.228782
 C         2.542383         0.248605        -1.310838
 C         3.002922         1.289322        -0.258534
 O         1.743793         1.271722         0.512713
 H        -0.064282        -0.536124        -1.322711
 H        -0.241136        -0.966176         0.454103
 H        -0.326532         0.685070        -0.230365
 H         1.704039        -0.995750         1.786562
 H         2.119993        -2.172354         0.400794
 H         4.944882         0.657032         0.765145
 H         4.650092         0.241052        -1.916038
 H         4.351756        -1.381085        -1.337900
 H         2.072129         0.334412        -2.336838
 H         3.278863         2.353659        -0.457344
