19
Iteration:  1663
 C         0.104940        -0.431818        -0.381170
 C         1.570904        -0.066858        -0.036239
 C         2.140954        -0.753964         1.148019
 O         3.557165        -0.259927         1.320758
 C         4.155264         0.178783         0.094696
 C         3.864539        -0.779263        -1.092236
 C         2.581614        -0.057587        -1.292922
 C         3.128566         1.205247        -0.531047
 O         1.860356         1.310877         0.243163
 H        -0.298216        -1.004558         0.538924
 H        -0.468602         0.490363        -0.550043
 H         0.005878        -1.062056        -1.244891
 H         1.459123        -0.513925         1.855725
 H         2.236319        -1.864300         0.979999
 H         5.170214         0.420509         0.297573
 H         4.699599        -0.780456        -1.848183
 H         3.531712        -1.808197        -0.913046
 H         2.074066         0.249690        -2.337154
 H         3.315912         2.216379        -1.033034
