19
Iteration:   478
 C        -0.007436        -0.366503        -0.319642
 C         1.534074        -0.096494        -0.112183
 C         2.208362        -1.097261         0.881274
 O         3.603742        -0.733509         1.102859
 C         4.122155         0.224676         0.151823
 C         4.008411        -0.339538        -1.251581
 C         2.648950         0.309547        -1.260922
 C         3.036186         1.303057        -0.254844
 O         1.792178         1.207145         0.509741
 H        -0.193035        -0.260088        -1.370188
 H        -0.368076        -1.354601         0.134392
 H        -0.585494         0.353027         0.133029
 H         1.704857        -1.004038         1.937157
 H         2.188166        -2.092602         0.552474
 H         5.083363         0.518133         0.568657
 H         4.757889         0.118122        -1.911129
 H         4.033900        -1.364411        -1.403552
 H         2.171492         0.566576        -2.333356
 H         3.229107         2.365862        -0.438478
