19
Iteration:  3704charge 0 multiplicity 1
 C         0.034355        -0.340754        -0.143746
 C         1.556948        -0.047477        -0.053875
 C         2.214535        -0.720401         1.122135
 O         3.502523        -0.101813         1.377373
 C         4.172272         0.186478         0.146129
 C         3.874341        -0.979565        -0.924567
 C         2.561178        -0.238835        -1.298338
 C         3.128449         1.122814        -0.711347
 O         1.890807         1.416644        -0.068640
 H        -0.166883        -1.290785         0.378380
 H        -0.589610         0.567416         0.123664
 H        -0.289317        -0.438440        -1.209892
 H         1.714693        -0.601056         2.113159
 H         2.447261        -1.869855         0.991532
 H         5.113405         0.629394         0.320962
 H         4.543082        -0.937952        -1.776468
 H         3.897847        -1.900004        -0.353541
 H         2.031008        -0.259442        -2.261778
 H         3.464574         1.976645        -1.237856
