19
Iteration:  2559
 C         0.099202        -0.328509        -0.392886
 C         1.624510        -0.171002        -0.077396
 C         2.176481        -0.825052         1.190090
 O         3.589277        -0.514752         1.274138
 C         4.110478         0.221930         0.110070
 C         3.903742        -0.678567        -1.142148
 C         2.564113        -0.010469        -1.321355
 C         3.026974         1.243846        -0.557851
 O         1.863508         1.378666         0.354470
 H        -0.184184        -0.027738        -1.393781
 H        -0.236688        -1.380348        -0.294758
 H        -0.507775         0.241225         0.460416
 H         1.487561        -0.395830         1.965611
 H         2.020417        -1.906920         1.177566
 H         5.076828         0.755966         0.388304
 H         4.642381        -0.375459        -1.921007
 H         3.965059        -1.736497        -1.116719
 H         1.975988         0.060881        -2.315136
 H         3.418571         2.198614        -1.032930
