19
Iteration:  1790
 C         0.088315        -0.403737        -0.311296
 C         1.580754        -0.012105        -0.078323
 C         2.258340        -0.873302         1.022292
 O         3.560363        -0.348982         1.363323
 C         4.108028         0.211434         0.175677
 C         3.857783        -0.794534        -1.080323
 C         2.576059        -0.001724        -1.326677
 C         3.053802         1.212808        -0.524533
 O         1.850372         1.370798         0.199382
 H        -0.578537         0.381043         0.183427
 H        -0.109307        -0.315806        -1.344503
 H        -0.031342        -1.414751         0.190823
 H         1.505578        -0.706047         1.979337
 H         2.187812        -1.885948         0.721176
 H         5.203007         0.488376         0.492672
 H         4.647314        -0.603929        -1.856719
 H         3.932447        -1.838500        -0.879686
 H         1.913294         0.116137        -2.241854
 H         3.445862         2.057426        -1.094800
