19
Iteration:  1897charge 0 multiplicity 1
 C         0.124670        -0.352253        -0.364349
 C         1.672649        -0.082364        -0.090286
 C         2.245715        -0.872959         1.028894
 O         3.495916        -0.193386         1.355841
 C         4.059747         0.172420         0.129447
 C         3.811244        -0.822831        -1.007487
 C         2.528534        -0.032540        -1.292168
 C         3.014285         1.240236        -0.593741
 O         1.916482         1.320512         0.284099
 H        -0.320746        -0.604299         0.580742
 H        -0.264365         0.502031        -0.893345
 H         0.236152        -1.154379        -1.137997
 H         1.747694        -0.788624         1.891306
 H         2.480017        -2.034491         0.811273
 H         5.147735         0.489533         0.356125
 H         4.561858        -0.695565        -1.749991
 H         3.642182        -1.938423        -0.797543
 H         2.042676        -0.133456        -2.352078
 H         3.605809         2.026153        -0.992081
