19
Iteration:  1711
 C         0.156212        -0.368030        -0.196095
 C         1.532958        -0.059042        -0.038389
 C         2.158060        -0.826926         1.143377
 O         3.538229        -0.513280         1.279834
 C         4.112113         0.193272         0.163939
 C         4.031785        -0.717364        -1.070224
 C         2.601734        -0.018320        -1.257734
 C         3.054319         1.247858        -0.609374
 O         1.788812         1.424424         0.071410
 H        -0.362695        -0.325536         0.715042
 H        -0.309464         0.387226        -0.898495
 H        -0.034382        -1.351094        -0.711053
 H         1.351262        -0.555979         1.972399
 H         2.011660        -1.854093         0.941870
 H         5.020483         0.615549         0.697581
 H         4.508122        -0.362290        -1.906978
 H         4.183618        -1.795623        -0.929064
 H         2.070663        -0.080913        -2.300831
 H         3.526587         2.015686        -1.156477
