19
Iteration:  1386
 C         0.186190        -0.401033        -0.503643
 C         1.592026        -0.084513         0.016058
 C         2.250913        -0.939042         1.111342
 O         3.553631        -0.279591         1.303612
 C         4.085819         0.187783         0.076461
 C         3.775049        -0.791878        -1.102078
 C         2.525636         0.080793        -1.303358
 C         3.029052         1.251036        -0.467568
 O         1.907447         1.324875         0.350781
 H         0.193809        -0.886573        -1.412207
 H        -0.446082        -0.954582         0.183367
 H        -0.279614         0.609022        -0.487546
 H         1.611207        -0.949611         1.953678
 H         2.281739        -1.941695         0.600377
 H         5.108904         0.489962         0.339759
 H         4.595164        -0.555084        -1.795685
 H         3.754462        -1.836868        -0.819757
 H         1.998648         0.103221        -2.374882
 H         3.432964         2.253048        -0.901550
