19
Iteration:  3800charge 0 multiplicity 1
 C         0.174004        -0.386205        -0.142850
 C         1.615531         0.005064        -0.076036
 C         2.201270        -0.686453         1.161718
 O         3.562828        -0.199147         1.369174
 C         4.010085         0.212699         0.153331
 C         3.880939        -1.033623        -0.884094
 C         2.586418        -0.225249        -1.321305
 C         3.031865         1.070523        -0.707363
 O         1.868106         1.558976        -0.057366
 H        -0.101072        -1.103925         0.605521
 H        -0.471882         0.531442        -0.120482
 H        -0.120606        -0.880432        -1.029050
 H         1.518678        -0.496161         2.038616
 H         1.968674        -1.836267         0.765953
 H         5.072874         0.570135         0.196511
 H         4.582413        -0.755858        -1.796979
 H         3.779450        -2.098814        -0.634478
 H         2.191231        -0.316393        -2.313411
 H         3.649471         1.851845        -1.233017
