19
Iteration:  2780charge 0 multiplicity 1
 C         0.062667        -0.354475        -0.359531
 C         1.531767        -0.101760        -0.092591
 C         2.269413        -0.899858         1.046064
 O         3.604808        -0.305450         1.310770
 C         4.118162         0.190800         0.120968
 C         3.832024        -0.855855        -0.994245
 C         2.542981         0.004504        -1.277312
 C         3.049046         1.262843        -0.564276
 O         1.893763         1.413661         0.274736
 H        -0.609974         0.467439        -0.683762
 H         0.039496        -1.113371        -1.167062
 H        -0.417600        -0.855185         0.415773
 H         1.732589        -0.930018         1.988184
 H         2.560683        -1.960123         0.724811
 H         5.085508         0.543259         0.315264
 H         4.471166        -0.545976        -1.789284
 H         3.686517        -1.854349        -0.757023
 H         2.148658         0.056244        -2.315753
 H         3.419284         2.202632        -0.970107
