19
Iteration:  1350
 C         0.087842        -0.419402        -0.322586
 C         1.608727        -0.034075        -0.104716
 C         2.163138        -0.834473         1.104146
 O         3.575320        -0.487777         1.269720
 C         4.095245         0.194925         0.127593
 C         3.899075        -0.658449        -1.113390
 C         2.592267         0.071930        -1.307203
 C         3.079453         1.220012        -0.426393
 O         1.817031         1.332714         0.236534
 H         0.026352        -1.431803        -0.716647
 H        -0.586306        -0.335060         0.566888
 H        -0.293210         0.187630        -1.103569
 H         1.775251        -0.708932         2.089660
 H         2.176418        -1.964972         0.859698
 H         5.112515         0.623826         0.269134
 H         4.631502        -0.405603        -1.879186
 H         4.008346        -1.783796        -0.977967
 H         2.021092         0.356915        -2.373442
 H         3.504241         2.144852        -0.649470
