19
Iteration:  4586charge 0 multiplicity 1
 C         0.090866        -0.275022        -0.134181
 C         1.508340         0.004884        -0.043364
 C         2.172286        -0.072467         1.315203
 O         3.518091         0.277193         1.370129
 C         4.112295         0.243264         0.140700
 C         3.859695        -1.246229        -0.448650
 C         2.614908        -0.726967        -1.133312
 C         3.170327         0.721590        -1.017722
 O         1.880656         1.286576        -0.546283
 H         0.080651        -0.523868        -1.185834
 H        -0.474075        -1.027510         0.481114
 H        -0.470980         0.721663        -0.069570
 H         1.667080         0.479768         2.071104
 H         2.136807        -1.180930         1.753045
 H         5.047590         0.728258         0.099283
 H         4.560576        -1.312593        -1.265819
 H         3.964516        -2.192234         0.197593
 H         2.028285        -1.090621        -1.922187
 H         3.698827         1.293017        -1.835673
