19
Iteration:  2549charge 0 multiplicity 1
 C         0.196596        -0.353121        -0.317797
 C         1.576532        -0.040712        -0.070915
 C         2.222220        -0.878690         1.103615
 O         3.542012        -0.475032         1.307662
 C         4.109866         0.218870         0.121264
 C         3.918773        -0.715126        -1.141395
 C         2.508698         0.033681        -1.283838
 C         3.002229         1.232348        -0.501447
 O         1.858141         1.349985         0.244324
 H        -0.075711         0.195988        -1.230408
 H        -0.051462        -1.413601        -0.490251
 H        -0.586278         0.101591         0.409226
 H         1.783859        -0.500091         2.045479
 H         2.122675        -1.995191         1.023328
 H         5.147392         0.363537         0.415999
 H         4.596499        -0.509704        -2.035123
 H         3.864381        -1.774422        -0.965569
 H         2.046473         0.031118        -2.310219
 H         3.295269         2.222389        -0.931716
