19
Iteration:  1588charge 0 multiplicity 1
 C         0.059872        -0.335751        -0.208341
 C         1.562886        -0.178830        -0.160921
 C         2.167218        -0.802313         1.116722
 O         3.487859        -0.436590         1.303116
 C         4.122609         0.199630         0.246778
 C         4.045354        -0.696264        -1.113028
 C         2.607511        -0.018722        -1.373312
 C         3.037186         1.181536        -0.581321
 O         1.858629         1.395889         0.184826
 H        -0.265288         0.210776         0.691530
 H        -0.303900        -0.124366        -1.208637
 H        -0.080320        -1.352137         0.066018
 H         1.515265        -0.393225         2.004993
 H         2.017718        -1.868388         1.056931
 H         5.007753         0.698020         0.512112
 H         4.612764        -0.477560        -1.961926
 H         4.256112        -1.755479        -0.917018
 H         2.055970         0.082524        -2.385034
 H         3.371908         2.125719        -1.115258
