19
Iteration:   631
 C         0.064882        -0.369781        -0.424290
 C         1.585183        -0.111585        -0.078329
 C         2.324785        -1.091902         0.827636
 O         3.540959        -0.507600         1.245180
 C         4.080740         0.214582         0.137699
 C         3.884349        -0.579263        -1.149015
 C         2.507879         0.285883        -1.290644
 C         3.067545         1.314282        -0.276460
 O         1.881569         1.241857         0.462189
 H        -0.492226        -0.987235         0.276200
 H        -0.526552         0.639816        -0.406767
 H         0.036181        -0.823147        -1.339349
 H         1.848549        -1.236412         1.791957
 H         2.421256        -2.136174         0.425032
 H         5.048294         0.548602         0.463980
 H         4.613895        -0.209000        -1.909540
 H         3.765018        -1.591307        -1.077869
 H         1.914737         0.427161        -2.235389
 H         3.391768         2.356865        -0.582969
