19
Iteration:  4845
 C        -0.014283        -0.217689        -0.082345
 C         1.556693        -0.044409        -0.053688
 C         2.134560         0.029295         1.334028
 O         3.474651         0.443347         1.316263
 C         4.108880         0.230343         0.089626
 C         3.887126        -1.274984        -0.273910
 C         2.577611        -0.822293        -0.978835
 C         3.216496         0.642505        -1.087146
 O         1.978818         1.212969        -0.780389
 H        -0.536014         0.662838        -0.567324
 H        -0.285467        -1.211953        -0.628326
 H        -0.300268        -0.201977         1.028467
 H         1.499577         0.808338         1.879039
 H         2.094059        -0.844703         2.017876
 H         5.171764         0.424177         0.172478
 H         4.607178        -1.676145        -0.983499
 H         3.875157        -1.903999         0.568194
 H         2.199463        -1.346036        -1.886910
 H         3.779617         0.981897        -1.911933
