19
Iteration:  1615charge 0 multiplicity 1
 C         0.057493        -0.286106        -0.333661
 C         1.572514        -0.048853        -0.025744
 C         2.285316        -0.884654         1.078619
 O         3.529054        -0.313447         1.343525
 C         4.150918         0.208244         0.178320
 C         3.919318        -0.784820        -1.043478
 C         2.542255        -0.076732        -1.307882
 C         3.056633         1.203049        -0.574219
 O         1.822600         1.334538         0.170282
 H        -0.483567        -0.422797         0.615003
 H        -0.227947         0.507328        -1.059181
 H         0.099000        -1.336188        -0.831761
 H         1.654198        -0.787871         2.018981
 H         2.279435        -1.945343         0.671745
 H         5.158375         0.727777         0.345741
 H         4.474544        -0.599803        -2.060720
 H         4.012674        -1.845188        -0.695892
 H         2.033797        -0.097536        -2.266288
 H         3.322191         2.192965        -0.945242
