19
Iteration:  2303
 C         0.106976        -0.340344        -0.272855
 C         1.634920        -0.064154        -0.096696
 C         2.189758        -0.868454         1.082269
 O         3.541168        -0.361489         1.369017
 C         4.102192         0.233595         0.209234
 C         3.945296        -0.742401        -1.103535
 C         2.578824        -0.084168        -1.300608
 C         3.029116         1.145729        -0.607869
 O         1.838590         1.384372         0.144799
 H        -0.421135        -0.765996         0.621643
 H        -0.443085         0.641953        -0.344329
 H        -0.151910        -0.821314        -1.198084
 H         1.538886        -0.546733         2.027572
 H         2.145372        -2.020604         1.078128
 H         5.101363         0.663439         0.518340
 H         4.566420        -0.404808        -1.863998
 H         4.016208        -1.856745        -0.989682
 H         1.970624         0.110056        -2.209453
 H         3.522475         1.965294        -1.108926
