19
Iteration:  3256charge 0 multiplicity 1
 C         0.065199        -0.330137        -0.384543
 C         1.567116        -0.104663        -0.056144
 C         2.286033        -0.764045         1.115912
 O         3.538489        -0.183593         1.395512
 C         4.110275         0.175298         0.016061
 C         3.826503        -0.859464        -1.055133
 C         2.471713        -0.115323        -1.304032
 C         3.061987         1.168827        -0.575751
 O         1.967007         1.330460         0.253879
 H        -0.023269        -1.424122        -0.273805
 H        -0.531042         0.315626         0.273540
 H        -0.159329        -0.109413        -1.369021
 H         1.635754        -0.631299         1.993259
 H         2.346936        -1.890658         1.278345
 H         5.036888         0.622288         0.219794
 H         4.578407        -0.629857        -1.821239
 H         3.856378        -1.976704        -0.765478
 H         2.040730        -0.021150        -2.270244
 H         3.430284         2.044337        -1.056005
