19
Iteration:  1163charge 0 multiplicity 1
 C         0.076873        -0.286942        -0.307435
 C         1.522967        -0.122282        -0.140304
 C         2.288966        -1.031021         0.902830
 O         3.513510        -0.410815         1.307060
 C         4.083197         0.251717         0.186097
 C         3.959144        -0.595862        -1.222868
 C         2.527505         0.066092        -1.287514
 C         3.033205         1.213341        -0.419735
 O         1.879366         1.254739         0.416160
 H        -0.266501         0.711336        -0.033581
 H        -0.178586        -0.399728        -1.366033
 H        -0.314800        -1.068129         0.333370
 H         1.759136        -1.174819         1.784332
 H         2.491435        -2.044690         0.414783
 H         5.049698         0.723219         0.456177
 H         4.731132        -0.133730        -1.918110
 H         4.240046        -1.744953        -1.183222
 H         1.829445         0.197552        -2.273136
 H         3.430696         2.174370        -0.637566
