19
Iteration:  2702
 C         0.102164        -0.303817        -0.367584
 C         1.575487        -0.024513         0.006327
 C         2.202089        -0.865950         1.163234
 O         3.630794        -0.546389         1.154719
 C         4.106851         0.246189         0.108115
 C         3.957192        -0.679311        -1.081707
 C         2.578862        -0.107163        -1.207031
 C         3.069174         1.223615        -0.497274
 O         1.725773         1.391746         0.208818
 H        -0.031016        -0.201212        -1.454288
 H        -0.399432        -1.224213        -0.118269
 H        -0.550289         0.388601         0.149790
 H         1.919931        -0.580113         2.175926
 H         2.058324        -1.952658         1.218100
 H         5.022213         0.706998         0.466247
 H         4.569601        -0.315183        -1.897024
 H         4.080984        -1.675748        -0.933432
 H         2.126823        -0.026499        -2.262800
 H         3.359738         2.169113        -0.979313
