19
Iteration:  4404charge 0 multiplicity 1
 C         0.097375        -0.312212        -0.188488
 C         1.571317        -0.075449        -0.079034
 C         2.163272        -0.377580         1.320586
 O         3.495744         0.237103         1.389461
 C         4.084987         0.246481         0.063920
 C         3.827346        -1.186785        -0.575037
 C         2.605974        -0.560533        -1.150684
 C         3.128903         0.861015        -0.954220
 O         1.952038         1.396915        -0.392181
 H        -0.275213        -0.241604        -1.169390
 H        -0.095708        -1.213423         0.259046
 H        -0.364878         0.371451         0.491287
 H         1.655064         0.252412         2.121210
 H         2.384514        -1.372217         1.666271
 H         5.019383         0.739722         0.158374
 H         4.572254        -1.697512        -1.285240
 H         3.536237        -1.985268         0.142319
 H         2.078797        -0.800331        -2.129826
 H         3.540818         1.371468        -1.804668
