19
Iteration:  3121
 C         0.135301        -0.346402        -0.327122
 C         1.548593        -0.071704        -0.082366
 C         2.300125        -0.848126         1.040779
 O         3.615784        -0.310732         1.337566
 C         4.084901         0.136359         0.078328
 C         3.761439        -0.834006        -1.021822
 C         2.575565         0.016713        -1.219611
 C         3.046492         1.221863        -0.516736
 O         1.834635         1.397497         0.164926
 H        -0.494829         0.432849         0.068482
 H        -0.161451        -0.390848        -1.350938
 H        -0.238236        -1.303090         0.174986
 H         1.790890        -0.834985         2.022544
 H         2.363064        -1.947315         0.646292
 H         5.114718         0.550668         0.383997
 H         4.555316        -0.807163        -1.796851
 H         3.830867        -1.907755        -0.718121
 H         2.023946         0.133851        -2.168881
 H         3.544005         2.085170        -1.045185
