19
Iteration:  2536charge 0 multiplicity 1
 C         0.139129        -0.353228        -0.306011
 C         1.586240        -0.036107         0.008464
 C         2.210076        -0.879714         1.030342
 O         3.576276        -0.372272         1.293705
 C         4.103006         0.117756         0.135778
 C         3.824837        -0.731557        -1.093925
 C         2.581688         0.015562        -1.310372
 C         3.113290         1.231018        -0.495293
 O         1.785172         1.378084         0.214207
 H        -0.264562         0.237154        -1.132276
 H         0.203630        -1.401755        -0.603505
 H        -0.466839        -0.335949         0.698874
 H         1.596842        -1.050432         1.954465
 H         2.272685        -1.850317         0.524104
 H         5.136315         0.599989         0.354264
 H         4.546497        -0.547922        -1.876167
 H         3.909785        -1.793082        -0.897403
 H         1.949022         0.174632        -2.266035
 H         3.595863         2.203125        -0.834933
