19
Iteration:  4403charge 0 multiplicity 1
 C         0.099433        -0.318578        -0.184503
 C         1.573598        -0.078766        -0.075974
 C         2.159279        -0.374625         1.317568
 O         3.493080         0.231103         1.385554
 C         4.084243         0.252357         0.065892
 C         3.829540        -1.186277        -0.582424
 C         2.607503        -0.556188        -1.147282
 C         3.131406         0.852340        -0.950719
 O         1.952298         1.404912        -0.394133
 H        -0.261176        -0.276689        -1.165846
 H        -0.131666        -1.223690         0.275691
 H        -0.359580         0.431423         0.475805
 H         1.653611         0.221175         2.115421
 H         2.390827        -1.344328         1.686732
 H         5.013492         0.731104         0.142396
 H         4.557844        -1.686473        -1.252346
 H         3.524428        -1.979378         0.136238
 H         2.079095        -0.793571        -2.129592
 H         3.553101         1.369139        -1.807830
