19
Iteration:   890
 C         0.079947        -0.311506        -0.480429
 C         1.571658        -0.114373        -0.102797
 C         2.329699        -1.025848         0.953597
 O         3.542316        -0.350082         1.299703
 C         4.114406         0.216223         0.108227
 C         3.800825        -0.595612        -1.170220
 C         2.527554         0.094613        -1.271184
 C         3.047612         1.249550        -0.351335
 O         1.910588         1.200912         0.470905
 H        -0.258077         0.735333        -0.786286
 H        -0.020741        -0.921680        -1.340462
 H        -0.553585        -0.536390         0.368808
 H         1.781383        -1.400059         1.915128
 H         2.537399        -1.908976         0.414331
 H         5.072232         0.604011         0.406026
 H         4.456679        -0.334545        -1.880576
 H         3.793388        -1.637244        -0.928760
 H         1.873845         0.120330        -2.286061
 H         3.376505         2.195476        -0.756903
