19
Iteration:   539charge 0 multiplicity 1
 C         0.161237        -0.374882        -0.446021
 C         1.587274        -0.078700        -0.114839
 C         2.292717        -1.109507         0.816266
 O         3.556941        -0.588960         1.214918
 C         4.122369         0.225944         0.116918
 C         3.826345        -0.470185        -1.221712
 C         2.507684         0.292168        -1.225776
 C         3.024460         1.305621        -0.208816
 O         1.861446         1.245246         0.534790
 H        -0.554519         0.544367        -0.642600
 H         0.117226        -0.865563        -1.387174
 H        -0.351001        -0.966207         0.462703
 H         1.711936        -1.219456         1.655673
 H         2.353073        -2.112741         0.317720
 H         5.154948         0.459448         0.478626
 H         4.530229        -0.274816        -2.053824
 H         3.628137        -1.629676        -1.101751
 H         2.018855         0.458202        -2.083138
 H         3.397645         2.305106        -0.548687
