19
Iteration:  4302
 C         0.032066        -0.336382        -0.243833
 C         1.553971        -0.032033        -0.017221
 C         2.213223        -0.404805         1.326986
 O         3.525525         0.209747         1.338703
 C         4.080626         0.133795         0.069531
 C         3.862457        -1.104833        -0.623410
 C         2.556893        -0.483588        -1.213629
 C         3.127216         0.917403        -0.925716
 O         1.932188         1.371375        -0.278878
 H        -0.474299        -0.332565         0.698904
 H        -0.473075         0.441097        -0.805718
 H        -0.073052        -1.319338        -0.683285
 H         1.830375        -0.160617         2.330947
 H         2.315708        -1.509022         1.460648
 H         5.140766         0.426974         0.320769
 H         4.686500        -1.199518        -1.310361
 H         3.807173        -2.060546        -0.025739
 H         2.017988        -0.707333        -2.132981
 H         3.743792         1.557729        -1.629981
