19
Iteration:  1060charge 0 multiplicity 1
 C         0.098524        -0.403641        -0.309150
 C         1.607265        -0.015307        -0.082486
 C         2.177826        -0.936212         1.028317
 O         3.575993        -0.607633         1.204311
 C         4.078324         0.192232         0.159336
 C         3.978674        -0.518990        -1.220821
 C         2.560773         0.157275        -1.318395
 C         3.022457         1.243529        -0.407758
 O         1.817550         1.271411         0.402669
 H        -0.435615         0.326510        -0.862190
 H         0.124888        -1.376512        -0.738606
 H        -0.324555        -0.547821         0.707443
 H         1.644192        -0.735228         1.899149
 H         2.078784        -1.957689         0.645379
 H         5.029844         0.622706         0.484417
 H         4.648811         0.051969        -1.960758
 H         4.204682        -1.596135        -1.312031
 H         2.029948         0.364627        -2.429956
 H         3.378963         2.280175        -0.654802
