19
Iteration:  2231
 C         0.169050        -0.348733        -0.356776
 C         1.569712        -0.120354        -0.040267
 C         2.187129        -0.805165         1.224699
 O         3.581455        -0.434844         1.325040
 C         4.003813         0.177605         0.155177
 C         3.911948        -0.734291        -1.149035
 C         2.548102        -0.029191        -1.268184
 C         3.070884         1.219906        -0.591649
 O         1.867575         1.403882         0.181788
 H        -0.514202         0.220879         0.247105
 H        -0.123818        -0.123925        -1.407714
 H        -0.003965        -1.493165        -0.399559
 H         1.665556        -0.402560         2.016546
 H         1.996218        -1.880999         1.291517
 H         4.969790         0.657840         0.462478
 H         4.749328        -0.252971        -1.877235
 H         3.950906        -1.834099        -1.105137
 H         2.120367        -0.200555        -2.254407
 H         3.442165         2.175844        -1.094372
