19
Iteration:  1295
 C         0.006101        -0.319097        -0.261511
 C         1.595513        -0.100861        -0.088181
 C         2.230868        -1.024355         0.942376
 O         3.500849        -0.436203         1.240540
 C         4.142370         0.276528         0.197516
 C         3.979976        -0.658139        -1.117821
 C         2.591616         0.040991        -1.316602
 C         3.042948         1.218980        -0.471675
 O         1.843516         1.347331         0.324680
 H        -0.469546        -0.923527         0.464366
 H        -0.417499         0.674445        -0.288740
 H        -0.093847        -0.615805        -1.263559
 H         1.819947        -1.037509         1.893402
 H         2.379159        -2.107840         0.617587
 H         5.060335         0.805041         0.551572
 H         4.706296        -0.385840        -1.901047
 H         4.016787        -1.769661        -0.850063
 H         1.959010         0.118374        -2.380614
 H         3.418839         2.142842        -0.819747
