19
Iteration:   581
 C         0.111220        -0.342452        -0.318568
 C         1.594267        -0.150383        -0.085314
 C         2.139016        -1.062384         0.975259
 O         3.573068        -0.719260         1.162368
 C         4.055917         0.191568         0.204434
 C         3.971188        -0.333164        -1.273767
 C         2.634365         0.244593        -1.324374
 C         3.064372         1.286496        -0.332086
 O         1.796551         1.267401         0.408068
 H        -0.429328         0.269858         0.468388
 H        -0.326054        -0.003571        -1.227598
 H        -0.097423        -1.519445        -0.156814
 H         1.741252        -1.011236         2.024564
 H         2.073559        -2.087617         0.725583
 H         5.013991         0.554184         0.677571
 H         4.525996         0.321691        -1.940182
 H         4.191044        -1.495832        -1.289375
 H         2.155791         0.567189        -2.299581
 H         3.356775         2.297979        -0.583215
