19
Iteration:  2251
 C         0.102263        -0.422253        -0.344409
 C         1.590810        -0.066580        -0.082922
 C         2.180301        -0.767991         1.112696
 O         3.516303        -0.274350         1.380190
 C         4.191779         0.158149         0.095186
 C         3.818614        -0.774973        -1.103286
 C         2.551904        -0.004556        -1.342337
 C         3.083063         1.172586        -0.548794
 O         1.874744         1.338911         0.253926
 H        -0.532656        -0.180744         0.479227
 H        -0.342732         0.074438        -1.218798
 H         0.055794        -1.418799        -0.672535
 H         1.627049        -0.657856         2.045883
 H         2.242694        -1.815740         0.866196
 H         5.269613         0.306709         0.447777
 H         4.639017        -0.609737        -1.892572
 H         3.916874        -1.820300        -0.745338
 H         2.052650         0.120830        -2.342076
 H         3.552156         2.130468        -0.870823
