19
Iteration:  1428
 C         0.093483        -0.372308        -0.213366
 C         1.535944        -0.094622        -0.149111
 C         2.143297        -0.895982         1.028055
 O         3.536982        -0.443778         1.300248
 C         4.092584         0.209063         0.198766
 C         3.985252        -0.663271        -1.052975
 C         2.618850         0.005032        -1.350069
 C         3.076784         1.230980        -0.529314
 O         1.844537         1.364290         0.219201
 H        -0.294328        -0.584530        -1.143277
 H        -0.319481        -1.117112         0.528165
 H        -0.466179         0.553628        -0.128032
 H         1.743554        -0.754990         1.955457
 H         2.197943        -2.029132         0.823841
 H         5.118275         0.597917         0.233965
 H         4.647367        -0.293625        -1.837848
 H         4.046635        -1.792797        -0.989525
 H         2.157039         0.164642        -2.471437
 H         3.473647         2.188131        -0.792203
