19
Iteration:   388
 C         0.224983        -0.391680        -0.453931
 C         1.645335        -0.122575        -0.111530
 C         2.315362        -1.177707         0.785462
 O         3.532819        -0.633849         1.196919
 C         4.122205         0.168791         0.099381
 C         3.765074        -0.430565        -1.251719
 C         2.478529         0.420905        -1.276761
 C         3.056953         1.463861        -0.164357
 O         1.824342         1.151685         0.626996
 H        -0.024301        -1.504627        -0.470206
 H        -0.480090         0.226377         0.120981
 H        -0.053506         0.030034        -1.475712
 H         1.613768        -1.308417         1.686360
 H         2.458718        -2.156326         0.472612
 H         5.199110         0.474081         0.390695
 H         4.437381        -0.286991        -2.028017
 H         3.550443        -1.501352        -1.214564
 H         1.870713         0.695852        -2.273149
 H         3.377148         2.552647        -0.223146
