19
Iteration:  4806
 C         0.170197        -0.293962        -0.167429
 C         1.613513        -0.051916        -0.031230
 C         2.147751         0.061325         1.394598
 O         3.479859         0.463400         1.338033
 C         4.065923         0.136845         0.082808
 C         3.781601        -1.273088        -0.346193
 C         2.568896        -0.753842        -0.970271
 C         3.180323         0.611487        -1.099930
 O         1.934778         1.274236        -0.719791
 H        -0.176225        -0.490577        -1.171410
 H        -0.038488        -1.127767         0.445007
 H        -0.457794         0.517437         0.195185
 H         1.637773         0.891709         1.862715
 H         1.988152        -0.871960         1.949520
 H         5.108234         0.549699         0.198133
 H         4.511447        -1.712657        -1.065586
 H         3.708148        -2.055082         0.551188
 H         1.974294        -1.310192        -1.683222
 H         3.737623         1.273115        -1.883592
