19
Iteration:   530
 C         0.162002        -0.380707        -0.437576
 C         1.599072        -0.103804        -0.065971
 C         2.291005        -1.143444         0.800889
 O         3.539200        -0.598690         1.260080
 C         4.118360         0.231280         0.140974
 C         3.803769        -0.510866        -1.240914
 C         2.507925         0.322954        -1.300776
 C         3.051300         1.352326        -0.310602
 O         1.862173         1.270614         0.579848
 H        -0.286413         0.602083        -0.857365
 H         0.179018        -1.140747        -1.201293
 H        -0.462832        -0.862576         0.358768
 H         1.715746        -1.373332         1.680247
 H         2.487359        -2.187152         0.286175
 H         5.135281         0.512694         0.469267
 H         4.554698        -0.324366        -2.021452
 H         3.639347        -1.612988        -1.129178
 H         1.902088         0.663560        -2.123661
 H         3.277093         2.444001        -0.246974
