19
Iteration:  2355
 C         0.166555        -0.387472        -0.321360
 C         1.597871        -0.063825        -0.120882
 C         2.193878        -0.763968         1.202462
 O         3.566988        -0.440307         1.305351
 C         4.048976         0.209358         0.107245
 C         3.930094        -0.719496        -1.026046
 C         2.547037        -0.103753        -1.321588
 C         3.035584         1.216388        -0.542690
 O         1.884494         1.401240         0.185111
 H        -0.500277        -1.030689         0.328977
 H        -0.309990         0.650038        -0.314587
 H        -0.169164        -0.817915        -1.324620
 H         1.538458        -0.535093         2.047611
 H         2.060066        -1.875142         1.092127
 H         4.991136         0.607869         0.325523
 H         4.468468        -0.447671        -2.001901
 H         3.882299        -1.825757        -0.779671
 H         1.978809        -0.084397        -2.221905
 H         3.566323         2.026543        -1.050412
