19
Iteration:  4340charge 0 multiplicity 1
 C         0.122227        -0.351307        -0.219592
 C         1.574680        -0.014996        -0.014461
 C         2.154989        -0.281222         1.438749
 O         3.512117         0.099975         1.354135
 C         4.088370         0.143129         0.082749
 C         3.908282        -1.139400        -0.674470
 C         2.562143        -0.479490        -1.177381
 C         3.098673         0.903594        -0.967157
 O         1.914276         1.362801        -0.344492
 H        -0.198255        -1.306246         0.268113
 H        -0.467513         0.491977         0.182585
 H        -0.112600        -0.424503        -1.289688
 H         1.531580         0.428156         2.023489
 H         1.984005        -1.340577         1.708581
 H         5.133714         0.424584         0.131830
 H         4.753333        -1.194443        -1.469483
 H         3.893646        -1.992520         0.007014
 H         2.061754        -0.846056        -2.100557
 H         3.451364         1.693637        -1.582810
