19
Iteration:  1382charge 0 multiplicity 1
 C         0.186699        -0.418465        -0.487501
 C         1.647399        -0.084338        -0.024480
 C         2.263793        -0.905126         1.109643
 O         3.545086        -0.319556         1.307394
 C         4.100820         0.177398         0.092331
 C         3.777478        -0.775591        -1.103921
 C         2.522893         0.074265        -1.270789
 C         2.994276         1.273132        -0.503518
 O         1.904341         1.345821         0.373753
 H         0.032884        -0.859073        -1.525168
 H        -0.555581        -0.925573         0.206679
 H        -0.276535         0.538130        -0.690879
 H         1.552187        -0.971075         1.942310
 H         2.251402        -1.905911         0.603872
 H         5.153551         0.532203         0.213095
 H         4.599060        -0.630600        -1.793939
 H         3.746310        -1.853358        -0.740046
 H         1.958716         0.122868        -2.295517
 H         3.394159         2.130772        -0.875431
