19
Iteration:  4994
 C         0.084961        -0.217226        -0.141702
 C         1.582999        -0.112385        -0.055201
 C         2.116083         0.143858         1.370122
 O         3.496486         0.620146         1.295847
 C         4.157084         0.222228         0.080814
 C         3.808275        -1.282157        -0.111143
 C         2.579601        -0.864242        -0.953635
 C         3.159387         0.477051        -1.233409
 O         1.949760         1.169385        -0.767790
 H        -0.097631        -0.425183        -1.195012
 H        -0.216673        -1.004034         0.544638
 H        -0.382689         0.635473         0.155662
 H         1.674188         0.996310         1.841659
 H         1.996640        -0.879901         1.930905
 H         5.202954         0.538932         0.148467
 H         4.498212        -2.016207        -0.598434
 H         3.532133        -1.753473         0.903212
 H         2.132355        -1.405613        -1.832965
 H         3.626350         0.984512        -2.182714
