19
Iteration:  4326
 C         0.130519        -0.326073        -0.268059
 C         1.600338        -0.061024        -0.058148
 C         2.097831        -0.310464         1.307663
 O         3.576216         0.113280         1.403448
 C         4.136031         0.256843         0.080488
 C         3.823934        -1.168399        -0.664145
 C         2.591936        -0.567841        -1.149689
 C         3.110626         0.943058        -0.974569
 O         1.877494         1.409009        -0.242472
 H        -0.182272        -0.898051         0.545310
 H        -0.401672         0.522150        -0.126892
 H        -0.099385        -0.863992        -1.173120
 H         1.703842         0.178335         2.267914
 H         2.064555        -1.350791         1.681834
 H         5.074480         0.758543         0.209093
 H         4.419551        -1.465662        -1.620633
 H         3.682248        -2.155113        -0.082543
 H         2.016923        -1.001116        -2.037733
 H         3.535404         1.434334        -1.863959
