19
Iteration:  2382charge 0 multiplicity 1
 C         0.101064        -0.437192        -0.281737
 C         1.552790         0.014367        -0.123105
 C         2.273261        -0.841196         1.091921
 O         3.517703        -0.251679         1.389135
 C         4.139626         0.121325         0.133780
 C         3.847166        -0.876749        -1.063889
 C         2.596864         0.032681        -1.288636
 C         3.094038         1.228952        -0.548097
 O         1.847487         1.384365         0.192989
 H        -0.330991        -1.080661         0.462646
 H        -0.561394         0.404177        -0.424410
 H        -0.003484        -0.964541        -1.218538
 H         1.536058        -0.982696         1.916638
 H         2.425428        -1.816168         0.579547
 H         5.231541         0.447249         0.333375
 H         4.430786        -0.816601        -1.935106
 H         3.597918        -1.893736        -0.959219
 H         2.055252         0.310145        -2.252351
 H         3.484112         2.062689        -1.178355
