19
Iteration:   148charge 0 multiplicity 1
 C         0.051967        -0.327527        -0.481866
 C         1.549500        -0.074133        -0.123188
 C         2.364536        -1.169993         0.674044
 O         3.653692        -0.577219         1.171238
 C         4.156884         0.224154         0.177077
 C         3.778434        -0.402220        -1.290924
 C         2.544446         0.347785        -1.211251
 C         3.044751         1.349041        -0.123946
 O         1.784343         1.078009         0.681937
 H        -0.426650        -0.733958         0.486267
 H        -0.295197         0.648716        -0.836002
 H        -0.120449        -1.137488        -1.285040
 H         1.796940        -1.375267         1.667143
 H         2.494593        -2.110262         0.122750
 H         5.224581         0.432766         0.482850
 H         4.467883        -0.035220        -2.139271
 H         3.771856        -1.537390        -1.528682
 H         1.869560         0.715502        -2.068922
 H         3.287687         2.432891        -0.301033
