19
Iteration:  4584
 C         0.079335        -0.266573        -0.152803
 C         1.519949        -0.004757        -0.043237
 C         2.177649        -0.087623         1.302858
 O         3.527918         0.281680         1.384784
 C         4.117191         0.248047         0.136961
 C         3.863799        -1.251044        -0.457449
 C         2.599859        -0.720879        -1.111961
 C         3.149218         0.729174        -1.002339
 O         1.885664         1.285316        -0.553214
 H         0.041560        -0.575320        -1.138138
 H        -0.445555        -0.920698         0.548536
 H        -0.477208         0.647700        -0.162556
 H         1.677719         0.468981         2.126817
 H         2.108351        -1.138981         1.723963
 H         5.099145         0.734868         0.066287
 H         4.566172        -1.310594        -1.350209
 H         3.894281        -2.171426         0.241917
 H         2.123587        -1.126843        -1.956812
 H         3.674518         1.268306        -1.820177
