19
Iteration:  4999
 C         0.119291        -0.227104        -0.150850
 C         1.616456        -0.101535        -0.043816
 C         2.115543         0.120247         1.376833
 O         3.488041         0.612128         1.265925
 C         4.129596         0.198146         0.096298
 C         3.795861        -1.261617        -0.095579
 C         2.567975        -0.875707        -0.947603
 C         3.174123         0.493155        -1.253145
 O         1.942129         1.190782        -0.755441
 H        -0.207265        -0.295724        -1.208687
 H        -0.298799        -1.191359         0.288849
 H        -0.361292         0.743495         0.319115
 H         1.615987         1.013756         1.848877
 H         2.094830        -0.757120         2.005651
 H         5.204265         0.429225         0.091640
 H         4.594942        -1.874275        -0.555869
 H         3.519360        -1.626857         0.860984
 H         2.178479        -1.480418        -1.761582
 H         3.517599         0.754414        -2.207914
