19
Iteration:  1066
 C         0.114010        -0.450980        -0.289160
 C         1.552255        -0.034321        -0.057939
 C         2.115821        -0.914330         1.025627
 O         3.587072        -0.598247         1.170370
 C         4.114039         0.151180         0.180845
 C         3.994757        -0.486853        -1.215265
 C         2.567782         0.180449        -1.364899
 C         3.038681         1.224092        -0.346871
 O         1.834206         1.313074         0.366399
 H        -0.500138         0.361898        -0.754722
 H         0.096042        -1.473039        -0.862265
 H        -0.192833        -0.704519         0.734755
 H         1.570887        -0.660998         2.069596
 H         2.006271        -1.958288         0.680791
 H         5.052891         0.633376         0.530889
 H         4.555810        -0.007733        -1.995330
 H         4.197206        -1.562497        -1.411900
 H         2.118665         0.417384        -2.241675
 H         3.350671         2.168338        -0.850174
