19
Iteration:  3453
 C         0.035002        -0.385505        -0.154414
 C         1.558467        -0.013669        -0.127461
 C         2.217093        -0.713516         1.154668
 O         3.565385        -0.246574         1.368376
 C         4.113445         0.188278         0.140072
 C         3.869920        -0.911622        -0.909687
 C         2.597939        -0.198211        -1.277326
 C         3.113396         1.139783        -0.749310
 O         1.843636         1.473676        -0.035252
 H        -0.398033        -0.107208         0.851902
 H        -0.452184         0.077055        -1.109858
 H         0.073681        -1.474445        -0.198192
 H         1.648198        -0.275321         2.001377
 H         2.206613        -1.804127         1.012069
 H         5.088943         0.516992         0.436368
 H         4.679774        -1.063107        -1.661984
 H         3.754277        -1.945415        -0.336513
 H         2.250026        -0.145379        -2.308113
 H         3.504390         2.020425        -1.272899
