19
Iteration:  4185charge 0 multiplicity 1
 C         0.122868        -0.374160        -0.224451
 C         1.586982        -0.057252         0.017061
 C         2.157229        -0.460534         1.338314
 O         3.466236         0.154067         1.340644
 C         4.110257         0.178197         0.073410
 C         3.809833        -1.095274        -0.777762
 C         2.584631        -0.382925        -1.296991
 C         3.160990         0.889857        -0.878444
 O         1.927603         1.394937        -0.131027
 H         0.003766        -0.848655        -1.209799
 H        -0.377597        -1.007209         0.510498
 H        -0.414959         0.669142        -0.175373
 H         1.726798         0.017519         2.250048
 H         2.223381        -1.500139         1.588974
 H         5.090453         0.481615         0.162392
 H         4.522226        -1.388025        -1.567939
 H         3.829334        -2.067404        -0.369426
 H         2.160253        -0.447798        -2.357306
 H         3.504999         1.638089        -1.537924
