19
Iteration:  4644charge 0 multiplicity 1
 C         0.082541        -0.385630        -0.196452
 C         1.525937         0.002983        -0.066496
 C         2.182614        -0.080505         1.424193
 O         3.520544         0.439381         1.350892
 C         4.118613         0.109854         0.085241
 C         3.777618        -1.318908        -0.376099
 C         2.615290        -0.663639        -1.098237
 C         3.131462         0.759255        -1.037887
 O         1.949538         1.353048        -0.607020
 H        -0.647010         0.552516        -0.302039
 H         0.096447        -0.977755        -1.149714
 H        -0.188543        -0.891205         0.807217
 H         1.671742         0.582648         2.129398
 H         2.332827        -1.202724         1.770597
 H         5.175895         0.464833         0.202215
 H         4.527753        -1.740566        -1.034375
 H         3.631743        -2.047706         0.410695
 H         2.083299        -1.145878        -2.032930
 H         3.550547         1.359956        -1.870936
