19
Iteration:  3512
 C         0.043969        -0.303085        -0.326100
 C         1.555040        -0.118351        -0.043725
 C         2.139922        -0.580428         1.243335
 O         3.609776        -0.053804         1.397431
 C         4.115198         0.160730         0.067169
 C         3.869360        -0.894702        -0.997380
 C         2.554423        -0.305298        -1.247763
 C         3.112289         1.083916        -0.726654
 O         1.921094         1.278917         0.063183
 H        -0.499413        -0.957623         0.312793
 H        -0.447747         0.604567        -0.354217
 H        -0.133532        -0.688824        -1.370929
 H         1.693160        -0.309236         2.176744
 H         2.075794        -1.672337         1.457661
 H         5.212697         0.420731         0.150831
 H         4.626268        -0.661745        -1.827290
 H         3.845127        -1.939618        -0.630878
 H         1.999724        -0.373452        -2.187775
 H         3.420531         2.156381        -1.053577
