19
Iteration:  1962charge 0 multiplicity 1
 C         0.114160        -0.331665        -0.287222
 C         1.584352        -0.089531        -0.060018
 C         2.131712        -0.759861         1.174253
 O         3.592774        -0.583989         1.275558
 C         4.041955         0.282819         0.196826
 C         3.991629        -0.653902        -1.087431
 C         2.602156        -0.044633        -1.315007
 C         3.051624         1.172287        -0.577385
 O         1.845212         1.385566         0.129438
 H        -0.523732         0.093975         0.491360
 H        -0.278136        -0.228435        -1.287764
 H        -0.097354        -1.443811        -0.016036
 H         1.566397        -0.175895         1.812741
 H         1.855054        -1.856372         1.171164
 H         5.035372         0.686251         0.526845
 H         4.601393        -0.420717        -1.970794
 H         4.318888        -1.806333        -0.824328
 H         1.810762         0.022404        -2.185050
 H         3.460378         2.082660        -1.057232
