19
Iteration:  4795
 C         0.134213        -0.379750        -0.150080
 C         1.583168         0.037344        -0.013303
 C         2.110347         0.052604         1.401176
 O         3.449579         0.507266         1.303204
 C         4.151883         0.157426         0.117971
 C         3.820860        -1.299558        -0.367537
 C         2.504213        -0.778165        -1.041911
 C         3.167685         0.587944        -1.104247
 O         2.006689         1.331679        -0.628841
 H         0.067105        -0.871918        -1.121314
 H        -0.203014        -1.063420         0.580338
 H        -0.447544         0.529739        -0.176916
 H         1.587212         0.780086         2.002764
 H         2.018153        -0.871027         1.965108
 H         5.147657         0.681858         0.132444
 H         4.525282        -1.760144        -1.099894
 H         3.536856        -2.082609         0.496104
 H         2.029770        -1.243457        -1.903600
 H         3.736211         0.659623        -2.126210
