19
Iteration:  2029charge 0 multiplicity 1
 C         0.151249        -0.348415        -0.264664
 C         1.601048        -0.039666        -0.101922
 C         2.238620        -0.937388         1.012750
 O         3.473314        -0.268087         1.394622
 C         4.056790         0.182066         0.096139
 C         3.872134        -0.820154        -1.013738
 C         2.544045         0.000762        -1.361698
 C         3.082118         1.292565        -0.572710
 O         1.888175         1.333598         0.202521
 H        -0.572977        -0.058134         0.534625
 H        -0.232080         0.084551        -1.167155
 H        -0.034527        -1.432453        -0.285405
 H         1.754308        -0.971163         1.938297
 H         2.453225        -2.008626         0.856344
 H         5.165114         0.495329         0.229854
 H         4.871643        -0.761210        -1.479515
 H         3.743506        -1.964863        -0.673499
 H         2.054499         0.055224        -2.404777
 H         3.421988         2.253866        -0.960549
