19
Iteration:  4645charge 0 multiplicity 1
 C         0.082881        -0.382503        -0.199226
 C         1.534601        -0.001142        -0.061373
 C         2.182188        -0.083299         1.424851
 O         3.522134         0.442059         1.357182
 C         4.128542         0.123879         0.083055
 C         3.771309        -1.334087        -0.377636
 C         2.615778        -0.664549        -1.098371
 C         3.128299         0.757166        -1.038523
 O         1.947429         1.355521        -0.611406
 H        -0.640784         0.559858        -0.271160
 H         0.087419        -0.971469        -1.163425
 H        -0.185469        -0.913027         0.774397
 H         1.643006         0.590164         2.147466
 H         2.320492        -1.192788         1.766001
 H         5.194531         0.495953         0.229338
 H         4.505004        -1.771328        -1.073589
 H         3.600740        -2.031973         0.404969
 H         2.098032        -1.170667        -2.042284
 H         3.506470         1.372303        -1.854102
