19
Iteration:  2468
 C         0.032247        -0.295495        -0.331733
 C         1.559892        -0.133347        -0.067127
 C         2.193347        -0.779729         1.143293
 O         3.636191        -0.487839         1.323429
 C         4.175644         0.238222         0.118709
 C         3.993115        -0.665732        -1.100632
 C         2.509072        -0.043323        -1.306837
 C         3.016636         1.148215        -0.544359
 O         1.800276         1.364260         0.226931
 H        -0.460275         0.660199        -0.003241
 H         0.102339        -0.246568        -1.439088
 H        -0.402514        -1.233842        -0.007139
 H         1.662572        -0.607011         2.125361
 H         2.139762        -1.849276         0.996930
 H         5.225797         0.613113         0.414949
 H         4.663380        -0.403200        -1.856474
 H         3.883290        -1.766610        -1.017846
 H         1.971767        -0.169042        -2.277349
 H         3.435472         2.039413        -1.001332
