19
Iteration:  2128
 C         0.022992        -0.411329        -0.365643
 C         1.619692        -0.047401        -0.032394
 C         2.222855        -0.852509         1.068368
 O         3.551040        -0.278157         1.384605
 C         4.068794         0.220784         0.104308
 C         3.880003        -0.828926        -1.008856
 C         2.566137         0.009732        -1.324218
 C         3.119294         1.219022        -0.587968
 O         1.900637         1.349241         0.220370
 H        -0.705263        -0.566187         0.463487
 H        -0.436974         0.219717        -1.134303
 H         0.009071        -1.340741        -0.833077
 H         1.728480        -0.744073         2.051882
 H         2.376300        -1.833422         0.789519
 H         5.155222         0.530159         0.400003
 H         4.542614        -0.761117        -1.892749
 H         3.691863        -1.971613        -0.798349
 H         1.976924         0.121138        -2.311021
 H         3.405813         2.193230        -0.979792
