19
Iteration:   551charge 0 multiplicity 1
 C         0.105276        -0.376679        -0.431255
 C         1.559457        -0.062256        -0.084542
 C         2.224462        -1.016858         0.859560
 O         3.603069        -0.597292         1.137713
 C         4.104925         0.167063         0.162312
 C         3.890379        -0.484797        -1.205386
 C         2.562752         0.254792        -1.294689
 C         3.064944         1.294120        -0.225936
 O         1.781360         1.223328         0.558020
 H        -0.435840         0.620048        -0.165846
 H        -0.041354        -0.765058        -1.420146
 H        -0.294578        -1.247206         0.254356
 H         1.784589        -1.052564         1.797552
 H         2.250643        -2.048909         0.394432
 H         5.126435         0.528628         0.377531
 H         4.478460         0.057434        -1.996109
 H         4.144789        -1.601067        -1.309403
 H         2.217782         0.539563        -2.209871
 H         3.432503         2.327597        -0.531284
