19
Iteration:  2475
 C         0.102576        -0.287552        -0.301007
 C         1.643236        -0.149899        -0.080506
 C         2.175098        -0.801268         1.117470
 O         3.571070        -0.423604         1.279811
 C         4.137364         0.194524         0.131101
 C         3.980010        -0.743879        -1.153679
 C         2.550260        -0.047584        -1.301417
 C         3.001053         1.200688        -0.518818
 O         1.802520         1.380599         0.258936
 H        -0.600936         0.545377        -0.066510
 H        -0.110677        -0.472571        -1.400053
 H        -0.434378        -1.106806         0.165452
 H         1.644312        -0.601528         2.040911
 H         2.183519        -1.935083         1.073500
 H         5.042877         0.611742         0.420862
 H         4.674549        -0.346678        -1.995675
 H         4.008632        -1.833070        -0.768686
 H         2.106677        -0.011097        -2.258572
 H         3.398557         2.144554        -0.875596
