19
Iteration:  1577charge 0 multiplicity 1
 C         0.113473        -0.386239        -0.185055
 C         1.625026        -0.080868        -0.100527
 C         2.115471        -0.814003         1.094071
 O         3.489941        -0.478129         1.352648
 C         4.097427         0.218347         0.153553
 C         4.023619        -0.646957        -1.123833
 C         2.608324        -0.052890        -1.374385
 C         3.056422         1.201170        -0.581245
 O         1.860256         1.347098         0.151488
 H        -0.430859         0.471809         0.280703
 H        -0.479192        -0.333612        -1.087112
 H        -0.205959        -1.293878         0.252375
 H         1.452778        -0.292399         1.943092
 H         2.005863        -1.872516         1.206982
 H         4.948199         0.585870         0.657088
 H         4.718746        -0.310316        -1.844833
 H         3.992928        -1.734622        -1.007087
 H         2.190366         0.121165        -2.416000
 H         3.493822         2.174419        -0.974291
