19
Iteration:  2008charge 0 multiplicity 1
 C         0.120568        -0.352104        -0.365953
 C         1.570657        -0.094165        -0.121451
 C         2.278588        -0.894182         1.073118
 O         3.511332        -0.213398         1.377550
 C         4.126881         0.219793         0.185157
 C         3.826253        -0.791545        -1.097319
 C         2.516221        -0.048163        -1.316720
 C         3.057613         1.187098        -0.517508
 O         1.898664         1.327978         0.262991
 H        -0.456793         0.335306         0.329938
 H        -0.156543        -0.113496        -1.385213
 H        -0.355975        -1.287117        -0.128755
 H         1.727801        -0.938384         1.909031
 H         2.520709        -1.925380         0.604504
 H         5.167640         0.715425         0.402810
 H         4.653003        -0.732900        -1.840980
 H         3.573782        -1.921013        -1.057476
 H         2.222667        -0.003742        -2.432636
 H         3.544967         2.012725        -1.040105
