19
Iteration:  1283charge 0 multiplicity 1
 C         0.075600        -0.273341        -0.381669
 C         1.498714        -0.113139        -0.066899
 C         2.268306        -1.044831         0.957413
 O         3.563647        -0.382568         1.282231
 C         4.119899         0.251412         0.085884
 C         3.943298        -0.680080        -1.064804
 C         2.609377         0.032708        -1.251813
 C         3.042543         1.297721        -0.460193
 O         1.829780         1.313506         0.376445
 H        -0.380506        -0.806250         0.498884
 H        -0.431391         0.643437        -0.427214
 H        -0.197989        -0.982592        -1.140976
 H         1.628369        -1.207134         1.822109
 H         2.378951        -2.043402         0.410040
 H         5.157519         0.473940         0.432600
 H         4.507329        -0.588633        -2.016109
 H         3.878574        -1.797027        -0.920126
 H         2.174194         0.256702        -2.419737
 H         3.262877         2.203216        -0.911118
