19
Iteration:  4321
 C         0.135638        -0.344932        -0.258144
 C         1.566771        -0.048924        -0.062435
 C         2.169194        -0.332388         1.267444
 O         3.561298         0.127405         1.426059
 C         4.143766         0.270215         0.100755
 C         3.848561        -1.197664        -0.660198
 C         2.535557        -0.560716        -1.165075
 C         3.103893         0.912605        -0.939828
 O         1.907320         1.420247        -0.241390
 H        -0.428427        -0.810085         0.666184
 H        -0.472960         0.714458        -0.317550
 H         0.024740        -0.991195        -1.164261
 H         1.559829         0.101602         2.042648
 H         2.066594        -1.399311         1.584819
 H         5.161915         0.830192        -0.026650
 H         4.314778        -1.433550        -1.561832
 H         3.734355        -2.018717         0.010307
 H         2.076170        -0.924933        -2.046419
 H         3.395119         1.496717        -1.871041
