19
Iteration:  3743charge 0 multiplicity 1
 C         0.106377        -0.269189        -0.329238
 C         1.574510        -0.032394        -0.012697
 C         2.237331        -0.602545         1.231386
 O         3.565569        -0.135616         1.386523
 C         4.085163         0.227685         0.084918
 C         3.986306        -0.968875        -0.986250
 C         2.480274        -0.279765        -1.325058
 C         3.001635         1.038228        -0.713870
 O         1.902096         1.331844         0.080013
 H        -0.350790        -0.945134         0.400760
 H        -0.538685         0.593992        -0.199422
 H         0.050585        -0.702488        -1.307621
 H         1.594884        -0.228755         2.061407
 H         1.991822        -1.771049         1.245568
 H         5.128470         0.703413         0.362605
 H         4.705947        -1.010441        -1.893332
 H         3.894793        -1.997548        -0.575440
 H         1.797685        -0.436066        -2.176819
 H         3.551262         1.992972        -1.103707
