19
Iteration:  3331charge 0 multiplicity 1
 C         0.088975        -0.427577        -0.121458
 C         1.598090        -0.091509        -0.120316
 C         2.100594        -0.707581         1.151014
 O         3.475520        -0.209366         1.349589
 C         4.106605         0.129904         0.095188
 C         3.945279        -0.862212        -1.062789
 C         2.606161        -0.099393        -1.364946
 C         3.104676         1.173265        -0.598924
 O         1.887478         1.412717         0.095895
 H        -0.221652        -0.760657        -1.130202
 H        -0.077828        -1.117239         0.694734
 H        -0.458418         0.478144         0.084792
 H         1.557482        -0.298934         2.013590
 H         2.206684        -1.830844         1.126043
 H         5.147026         0.186477         0.430057
 H         4.512974        -0.725349        -2.009836
 H         4.176305        -1.983123        -1.017278
 H         2.178149         0.088870        -2.314792
 H         3.527878         2.027608        -1.069467
