19
Iteration:  4575
 C         0.035515        -0.254915        -0.223561
 C         1.581071        -0.042520        -0.056443
 C         2.166798        -0.147206         1.346181
 O         3.568877         0.317926         1.429892
 C         4.130082         0.216444         0.094795
 C         3.901231        -1.229259        -0.502419
 C         2.551377        -0.688249        -1.036053
 C         3.090367         0.742675        -0.985219
 O         1.903347         1.313647        -0.575284
 H        -0.254210        -0.927634        -1.028160
 H        -0.299766        -0.724553         0.735490
 H        -0.493748         0.731635        -0.363023
 H         1.634189         0.483292         2.023367
 H         2.042492        -1.283761         1.617843
 H         5.116281         0.610516         0.169667
 H         4.550397        -1.549139        -1.307399
 H         3.796422        -2.041441         0.268457
 H         2.300812        -1.142952        -1.930852
 H         3.541319         1.283328        -1.857385
