19
Iteration:  4779charge 0 multiplicity 1
 C         0.028493        -0.404828        -0.191707
 C         1.528585         0.015918        -0.070201
 C         2.110157         0.054710         1.338710
 O         3.520096         0.574390         1.342771
 C         4.076509         0.132374         0.037433
 C         3.807397        -1.381229        -0.310357
 C         2.574287        -0.773886        -0.975379
 C         3.174925         0.636985        -1.161009
 O         2.092486         1.346392        -0.559064
 H        -0.202203        -1.314869        -0.814717
 H        -0.248908        -0.752256         0.863835
 H        -0.697469         0.334059        -0.582608
 H         1.556111         0.721168         2.092261
 H         2.122995        -1.043353         1.723489
 H         5.109207         0.410708         0.199149
 H         4.526096        -1.610031        -1.094165
 H         3.915248        -2.126681         0.359238
 H         1.967151        -1.286803        -1.763389
 H         3.517978         1.293160        -1.889612
