19
Iteration:  3221
 C         0.155049        -0.384048        -0.175948
 C         1.601635        -0.011412        -0.098466
 C         2.190764        -0.773558         1.064428
 O         3.538282        -0.357906         1.375666
 C         4.088486         0.125180         0.102422
 C         3.893440        -0.818351        -1.042480
 C         2.562532        -0.053702        -1.303698
 C         3.100443         1.240787        -0.573711
 O         1.838583         1.402045         0.074607
 H        -0.016956        -1.081168         0.643475
 H        -0.586236         0.303578         0.077208
 H        -0.089831        -0.863738        -1.125203
 H         1.491678        -0.427923         1.831240
 H         2.287974        -1.886219         0.867311
 H         5.133406         0.372142         0.404341
 H         4.395770        -0.692062        -1.984460
 H         3.717153        -1.909025        -0.804775
 H         1.981045         0.102423        -2.170705
 H         3.514372         2.171831        -0.944629
