19
Iteration:   546charge 0 multiplicity 1
 C         0.120136        -0.366287        -0.442990
 C         1.572210        -0.059865        -0.093026
 C         2.260214        -1.060652         0.834884
 O         3.588942        -0.577455         1.150449
 C         4.103559         0.174236         0.156181
 C         3.853010        -0.474800        -1.198741
 C         2.545691         0.275712        -1.245401
 C         3.041244         1.309642        -0.181783
 O         1.816732         1.216837         0.538867
 H        -0.423629         0.513903        -0.284475
 H         0.036297        -0.883201        -1.441683
 H        -0.271859        -1.100770         0.292853
 H         1.684641        -1.076235         1.851353
 H         2.270157        -2.001640         0.321183
 H         5.131453         0.514364         0.335181
 H         4.438624        -0.150387        -2.064708
 H         4.027485        -1.558852        -1.261567
 H         2.147360         0.467238        -2.362177
 H         3.477891         2.152870        -0.677496
