19
Iteration:  4335charge 0 multiplicity 1
 C         0.127057        -0.339075        -0.243991
 C         1.603084        -0.034093        -0.038165
 C         2.103527        -0.296398         1.431194
 O         3.552023         0.101786         1.354362
 C         4.095096         0.185653         0.066110
 C         3.868185        -1.147168        -0.679738
 C         2.587367        -0.503952        -1.151685
 C         3.094572         0.915371        -0.985012
 O         1.887989         1.375931        -0.300404
 H        -0.068175        -1.192373         0.390385
 H        -0.447498         0.564161         0.018855
 H        -0.217083        -0.593461        -1.261916
 H         1.630782         0.452994         2.111755
 H         2.055954        -1.390779         1.600185
 H         5.131319         0.513842         0.343686
 H         4.629153        -1.284783        -1.414829
 H         3.803226        -2.084298        -0.056204
 H         2.073120        -0.941265        -2.021704
 H         3.587240         1.652450        -1.703751
