19
Iteration:  1251charge 0 multiplicity 1
 C         0.190935        -0.378916        -0.450749
 C         1.600239        -0.119528        -0.026942
 C         2.231426        -0.976795         1.065818
 O         3.570375        -0.419491         1.329183
 C         4.026145         0.222361         0.124737
 C         3.842882        -0.637125        -1.244981
 C         2.493244         0.146622        -1.324793
 C         3.035023         1.228480        -0.417786
 O         1.879443         1.320778         0.418143
 H        -0.443781        -0.137858         0.346809
 H        -0.147606         0.167060        -1.305048
 H         0.071295        -1.403677        -0.682383
 H         1.658808        -0.814868         1.895471
 H         2.377091        -2.062591         0.859289
 H         5.088450         0.457435         0.328162
 H         4.627875        -0.399236        -1.992342
 H         3.715740        -1.772821        -1.183365
 H         2.298521         0.286180        -2.468740
 H         3.478951         2.128733        -0.773076
