19
Iteration:  1608
 C         0.057439        -0.323787        -0.307382
 C         1.584533        -0.029874        -0.016472
 C         2.216898        -0.851950         1.066065
 O         3.546793        -0.343359         1.311946
 C         4.116309         0.204298         0.120251
 C         3.945158        -0.719244        -1.022455
 C         2.603379        -0.129241        -1.290902
 C         3.096137         1.193122        -0.542171
 O         1.810449         1.326422         0.160527
 H        -0.521334        -0.160089         0.701938
 H        -0.358135         0.336233        -1.030734
 H        -0.235099        -1.321873        -0.582328
 H         1.570002        -0.692036         1.866687
 H         2.184345        -1.946013         0.810020
 H         5.062675         0.670790         0.366179
 H         4.615246        -0.535709        -1.893755
 H         4.055668        -1.788787        -0.906948
 H         2.091818         0.008524        -2.410232
 H         3.346941         2.268683        -0.889142
