19
Iteration:  1791
 C         0.079349        -0.413333        -0.312628
 C         1.581440        -0.009874        -0.077901
 C         2.250184        -0.860833         1.018226
 O         3.565634        -0.357213         1.360144
 C         4.114009         0.205481         0.180182
 C         3.859733        -0.779616        -1.076305
 C         2.574339         0.002926        -1.325164
 C         3.049554         1.206108        -0.521259
 O         1.852544         1.372466         0.195333
 H        -0.580690         0.386143         0.231329
 H        -0.121682        -0.311738        -1.346955
 H        -0.018668        -1.391614         0.214291
 H         1.470975        -0.677387         1.967045
 H         2.216952        -1.910796         0.738060
 H         5.189215         0.472352         0.498404
 H         4.677545        -0.609615        -1.885894
 H         3.934952        -1.843015        -0.892912
 H         1.955010         0.063893        -2.227999
 H         3.446856         2.060755        -1.130053
