19
Iteration:   957charge 0 multiplicity 1
 C         0.081052        -0.462476        -0.301070
 C         1.565465        -0.019537        -0.105148
 C         2.210318        -0.853919         0.997592
 O         3.629811        -0.741974         1.196528
 C         4.068258         0.147228         0.189014
 C         4.017686        -0.527111        -1.189912
 C         2.616688         0.208955        -1.316471
 C         3.035813         1.270782        -0.359123
 O         1.719571         1.401808         0.328458
 H        -0.730524        -0.075329        -0.922476
 H         0.041967        -1.566971        -0.393899
 H        -0.209241        -0.240184         0.719589
 H         1.663980        -0.767795         2.011823
 H         2.016435        -1.836052         0.754062
 H         5.084455         0.505799         0.409889
 H         4.633192        -0.081956        -1.849333
 H         3.988867        -1.569587        -1.242797
 H         2.279934         0.317015        -2.483380
 H         3.460642         2.273621        -0.708453
