19
Iteration:   554
 C         0.090405        -0.383946        -0.398108
 C         1.552888        -0.067478        -0.090001
 C         2.216688        -0.997824         0.861073
 O         3.604581        -0.621140         1.147753
 C         4.117014         0.179515         0.151390
 C         3.925596        -0.493918        -1.223402
 C         2.573662         0.236963        -1.296416
 C         3.071747         1.286035        -0.264168
 O         1.768220         1.235454         0.565620
 H        -0.428771         0.531701        -0.178918
 H        -0.094992        -0.657897        -1.489380
 H        -0.260651        -1.170512         0.140437
 H         1.732641        -1.049839         1.923392
 H         2.241793        -2.090341         0.456109
 H         5.101717         0.504140         0.453863
 H         4.531911         0.141473        -1.900285
 H         4.118161        -1.504407        -1.322273
 H         2.119612         0.640179        -2.323470
 H         3.359911         2.391135        -0.375254
