19
Iteration:  2922charge 0 multiplicity 1
 C         0.054704        -0.291255        -0.352837
 C         1.556608        -0.040161         0.031262
 C         2.177868        -0.883526         1.156911
 O         3.560379        -0.430572         1.318814
 C         4.146087         0.230656         0.068289
 C         3.944198        -0.684552        -1.198970
 C         2.575807        -0.040179        -1.278755
 C         3.047429         1.208467        -0.582919
 O         1.863454         1.283440         0.272699
 H        -0.187386        -0.340413        -1.433698
 H        -0.212491        -1.314534         0.021267
 H        -0.620853         0.394487         0.056127
 H         1.748182        -0.640241         2.135236
 H         2.130559        -1.941132         1.163572
 H         5.155198         0.495638         0.303227
 H         4.597483        -0.181323        -1.957068
 H         4.114755        -1.688106        -0.881783
 H         2.138660         0.022751        -2.323964
 H         3.286980         2.238826        -0.987102
