19
Iteration:  4655charge 0 multiplicity 1
 C         0.122627        -0.356703        -0.214194
 C         1.623387        -0.028893        -0.019893
 C         2.175293        -0.069850         1.377299
 O         3.533672         0.456891         1.406974
 C         4.171323         0.246904         0.108065
 C         3.747625        -1.395102        -0.415504
 C         2.570576        -0.693828        -1.076132
 C         3.153291         0.736906        -1.085488
 O         1.902098         1.344687        -0.593674
 H        -0.517298         0.634354        -0.013893
 H        -0.248998        -0.788477        -1.206981
 H        -0.269630        -1.241321         0.435022
 H         1.528766         0.461049         2.090411
 H         2.026924        -1.181945         1.796864
 H         5.231600         0.631839         0.176911
 H         4.327198        -1.946898        -1.148425
 H         3.424046        -2.041332         0.372844
 H         2.135523        -1.225364        -2.032922
 H         3.591558         1.316081        -1.925487
