19
Iteration:  2956charge 0 multiplicity 1
 C         0.116668        -0.336515        -0.233924
 C         1.574754        -0.041318        -0.069014
 C         2.223203        -0.816232         1.141922
 O         3.563422        -0.608699         1.235469
 C         4.087360         0.212260         0.101971
 C         3.953024        -0.666981        -1.064390
 C         2.611906        -0.091198        -1.309647
 C         3.015843         1.237824        -0.512080
 O         1.748054         1.472771         0.165032
 H        -0.377974         0.193544        -1.028801
 H         0.132352        -1.447758        -0.429727
 H        -0.420261        -0.204535         0.699628
 H         1.824105        -0.263579         2.012266
 H         1.981085        -1.863695         1.167791
 H         5.121601         0.560344         0.306348
 H         4.681464        -0.460307        -1.875390
 H         4.239267        -1.720824        -0.964675
 H         2.163506         0.049118        -2.307943
 H         3.635431         2.044959        -0.976211
