19
Iteration:  3941charge 0 multiplicity 1
 C         0.126091        -0.384818        -0.206192
 C         1.596193        -0.081548        -0.110996
 C         2.179522        -0.628472         1.255729
 O         3.545728         0.041588         1.421419
 C         4.065292         0.104918         0.119467
 C         3.794909        -1.009225        -0.919660
 C         2.566569        -0.226228        -1.400552
 C         3.093825         1.067073        -0.757463
 O         1.962799         1.381353         0.017750
 H         0.032595        -0.715355        -1.314700
 H        -0.260248        -1.175208         0.595411
 H        -0.538550         0.503953        -0.148696
 H         1.626665        -0.244727         2.122334
 H         2.227688        -1.737697         1.319176
 H         5.193098         0.414913         0.178234
 H         4.487658        -0.954128        -1.687646
 H         3.529580        -1.932124        -0.460638
 H         2.020547        -0.302410        -2.362979
 H         3.444521         1.977528        -1.363185
