19
Iteration:   773charge 0 multiplicity 1
 C         0.144029        -0.337836        -0.481469
 C         1.598739        -0.101604        -0.035621
 C         2.307794        -1.091852         0.946708
 O         3.532263        -0.456749         1.281151
 C         4.086930         0.232077         0.136543
 C         3.862995        -0.681195        -1.171246
 C         2.528856         0.214555        -1.312706
 C         3.027898         1.361205        -0.377451
 O         1.865754         1.249954         0.496135
 H         0.088804        -0.416746        -1.596720
 H        -0.381895        -1.327081         0.068428
 H        -0.463045         0.560337        -0.253765
 H         1.822349        -1.239847         1.831938
 H         2.371905        -2.078145         0.422737
 H         5.072814         0.690299         0.309053
 H         4.500745        -0.373895        -2.162264
 H         3.623498        -1.739942        -0.998907
 H         2.025613         0.324469        -2.126625
 H         3.250164         2.450792        -0.699834
