19
Iteration:  2122charge 0 multiplicity 1
 C         0.034192        -0.407146        -0.389359
 C         1.592414        -0.000945        -0.050821
 C         2.224127        -0.798722         1.115268
 O         3.572696        -0.320864         1.363414
 C         4.089220         0.229454         0.091100
 C         3.875489        -0.795875        -1.026033
 C         2.545550        -0.050102        -1.324282
 C         3.114356         1.212265        -0.562975
 O         1.887256         1.334296         0.227753
 H        -0.638193        -0.657203         0.451128
 H        -0.396008         0.423376        -1.006781
 H         0.080594        -1.450523        -0.898473
 H         1.720251        -0.650928         2.070139
 H         2.234332        -1.978059         0.932420
 H         5.063764         0.443416         0.462146
 H         4.630812        -0.679366        -1.841682
 H         3.693682        -1.805881        -0.825128
 H         2.218819        -0.039436        -2.339539
 H         3.295635         2.208828        -1.021108
