19
Iteration:  1624charge 0 multiplicity 1
 C         0.136377        -0.309852        -0.354412
 C         1.546429        -0.101699        -0.071048
 C         2.272010        -0.898366         1.067365
 O         3.556375        -0.276251         1.378711
 C         4.125782         0.242873         0.150392
 C         3.875427        -0.826529        -1.058512
 C         2.505776        -0.042845        -1.285272
 C         3.009314         1.206187        -0.590514
 O         1.855376         1.377468         0.210609
 H        -0.568679        -0.446278         0.406599
 H        -0.277709         0.588929        -0.909205
 H         0.096851        -1.148521        -1.113931
 H         1.835177        -1.028660         2.154931
 H         2.497321        -1.913341         0.770341
 H         5.148738         0.503362         0.512492
 H         4.612596        -0.695590        -1.859927
 H         3.865042        -1.895069        -0.736918
 H         2.059368        -0.125954        -2.162341
 H         3.450553         2.001820        -1.110368
