19
Iteration:  2413charge 0 multiplicity 1
 C         0.104037        -0.378037        -0.240752
 C         1.592571        -0.051292        -0.167878
 C         2.196607        -0.846436         1.108134
 O         3.496582        -0.298194         1.334115
 C         4.078315         0.195455         0.129583
 C         3.885854        -0.801456        -1.047512
 C         2.563481        -0.008874        -1.353283
 C         3.086634         1.237672        -0.583408
 O         1.924760         1.315071         0.257656
 H        -0.307147        -0.791286         0.716687
 H        -0.547461         0.434747        -0.694080
 H         0.194625        -1.113639        -1.015194
 H         1.503121        -0.586065         1.959006
 H         2.262179        -1.890436         0.876661
 H         5.136219         0.530282         0.408057
 H         4.546694        -0.623544        -1.809628
 H         3.833849        -1.910072        -1.004218
 H         2.078494         0.040078        -2.358143
 H         3.432873         2.168715        -1.010131
