19
Iteration:  3140charge 0 multiplicity 1
 C         0.104774        -0.283991        -0.379082
 C         1.569521        -0.075215         0.004427
 C         2.279910        -0.898691         1.181142
 O         3.558123        -0.240384         1.375349
 C         4.124441         0.187810         0.107500
 C         3.831482        -0.797201        -1.104450
 C         2.485545        -0.072045        -1.420775
 C         3.102179         1.219677        -0.589583
 O         1.892464         1.312205         0.272656
 H        -0.574539         0.278583         0.258217
 H         0.065304         0.015811        -1.486925
 H        -0.317469        -1.278042        -0.196667
 H         1.570074        -0.841117         2.034369
 H         2.418819        -2.000388         1.029438
 H         5.127293         0.581927         0.359807
 H         4.649558        -0.782106        -1.864643
 H         3.740806        -1.844837        -1.038855
 H         1.801042        -0.184976        -2.349951
 H         3.303303         2.236443        -1.023768
