19
Iteration:  3600
 C         0.114169        -0.307684        -0.264230
 C         1.535829        -0.069755        -0.016029
 C         2.237182        -0.650750         1.292540
 O         3.472720        -0.000713         1.351452
 C         4.111840         0.189773         0.079104
 C         3.899722        -0.994592        -0.901041
 C         2.546747        -0.266229        -1.362381
 C         3.098651         1.099330        -0.761549
 O         1.908459         1.302999         0.032649
 H         0.053508        -1.224040        -0.850758
 H        -0.401812        -0.505376         0.613555
 H        -0.242387         0.550063        -0.881429
 H         1.709814        -0.245178         2.210146
 H         2.194449        -1.789866         1.493143
 H         5.242414         0.411194         0.185105
 H         4.564521        -1.115513        -1.869519
 H         3.712572        -2.072233        -0.506696
 H         2.035038        -0.205701        -2.342676
 H         3.466249         2.059194        -1.325185
