19
Iteration:  1691charge 0 multiplicity 1
 C         0.102344        -0.429754        -0.245229
 C         1.573868        -0.026065        -0.091704
 C         2.200169        -0.740782         1.125790
 O         3.575216        -0.518686         1.324073
 C         4.065232         0.196337         0.206325
 C         3.962500        -0.709905        -1.067684
 C         2.531413        -0.109003        -1.371382
 C         3.096310         1.218903        -0.533505
 O         1.823576         1.457579         0.084600
 H        -0.250249        -0.730362         0.744968
 H        -0.525192         0.424645        -0.471038
 H         0.165853        -1.287384        -0.988929
 H         1.388204        -0.379031         1.962221
 H         2.069535        -1.822840         1.057035
 H         5.125496         0.591414         0.463206
 H         4.720644        -0.329951        -1.796492
 H         3.898164        -1.789058        -0.944504
 H         2.160723         0.008107        -2.310169
 H         3.448224         2.183165        -0.858719
