19
Iteration:   446charge 0 multiplicity 1
 C         0.121725        -0.307605        -0.264771
 C         1.595301        -0.080744        -0.094451
 C         2.208976        -1.134088         0.793253
 O         3.568538        -0.813699         1.086223
 C         4.092679         0.238502         0.202343
 C         3.994873        -0.286588        -1.219613
 C         2.598645         0.217852        -1.214914
 C         3.000313         1.310577        -0.263535
 O         1.766080         1.250227         0.483979
 H        -0.020449        -0.808510        -1.233095
 H        -0.282866        -1.119094         0.528286
 H        -0.297383         0.640178        -0.379434
 H         1.536176        -1.006196         1.784253
 H         2.168126        -2.088508         0.424114
 H         4.993352         0.725166         0.453826
 H         4.605887         0.315848        -1.947218
 H         4.116290        -1.314601        -1.451828
 H         2.146154         0.545767        -2.252689
 H         3.293404         2.301599        -0.628103
