19
Iteration:  4761charge 0 multiplicity 1
 C         0.060916        -0.326920        -0.139758
 C         1.574739        -0.035375        -0.062973
 C         2.183567        -0.012422         1.357530
 O         3.497623         0.508120         1.270805
 C         4.161648         0.187497         0.134851
 C         3.783784        -1.286632        -0.330414
 C         2.509105        -0.794944        -1.055762
 C         3.216223         0.659593        -1.035417
 O         1.941626         1.304812        -0.620549
 H        -0.052172        -1.311282        -0.493033
 H        -0.514812        -0.146607         0.732300
 H        -0.339642         0.312178        -0.940187
 H         1.564460         0.723719         1.873226
 H         2.186071        -0.979986         1.811713
 H         5.238326         0.424684         0.145338
 H         4.525667        -1.739914        -1.025034
 H         3.623961        -2.046123         0.566250
 H         2.169520        -1.404197        -1.858391
 H         3.656552         1.184826        -1.990352
