19
Iteration:  1393
 C         0.173752        -0.345540        -0.469319
 C         1.522026        -0.085751         0.022129
 C         2.240561        -0.954959         1.065059
 O         3.546384        -0.253393         1.324619
 C         4.059967         0.195844         0.084630
 C         3.804963        -0.764720        -1.101431
 C         2.536438         0.055467        -1.339190
 C         3.109326         1.234199        -0.462318
 O         1.887251         1.301767         0.331088
 H         0.349214        -0.887298        -1.430146
 H        -0.300394        -1.106122         0.239376
 H        -0.351289         0.588803        -0.446564
 H         1.809287        -0.917673         2.077138
 H         2.453260        -2.037864         0.825072
 H         5.093225         0.455116         0.395375
 H         4.495610        -0.583836        -1.924541
 H         3.728518        -1.904172        -1.011047
 H         2.012087         0.131133        -2.367086
 H         3.369334         2.169594        -0.763353
