19
Iteration:  1819
 C         0.063208        -0.429803        -0.206867
 C         1.587005        -0.044582        -0.071270
 C         2.126048        -0.772778         1.165216
 O         3.503035        -0.484057         1.263112
 C         4.072549         0.240740         0.146433
 C         4.012855        -0.759532        -1.117732
 C         2.625788        -0.003360        -1.353288
 C         3.101364         1.227251        -0.496606
 O         1.827588         1.388490         0.108652
 H        -0.411124         0.068013         0.591671
 H        -0.213205        -0.076327        -1.220746
 H        -0.018387        -1.495494         0.066925
 H         1.604625        -0.339755         1.914688
 H         1.898568        -1.965066         1.170222
 H         5.045099         0.492981         0.565395
 H         4.719559        -0.392239        -1.843857
 H         4.396374        -1.814918        -1.033439
 H         2.049801         0.126089        -2.360232
 H         3.533157         2.118849        -0.922820
