19
Iteration:  1721
 C         0.049129        -0.347881        -0.248433
 C         1.607382        -0.097203        -0.050455
 C         2.170872        -0.843777         1.110034
 O         3.503174        -0.457381         1.268548
 C         4.117606         0.225410         0.171395
 C         4.037829        -0.723058        -1.085066
 C         2.567420        -0.106672        -1.265456
 C         3.072858         1.231660        -0.567657
 O         1.809933         1.440757         0.123792
 H        -0.479041        -0.131999         0.628595
 H        -0.295380         0.392784        -1.044002
 H        -0.040441        -1.425691        -0.495347
 H         1.735009        -0.554161         2.143266
 H         2.165382        -1.925550         1.049121
 H         5.134853         0.579327         0.459980
 H         4.681044        -0.417886        -1.842638
 H         4.126361        -1.817735        -0.950494
 H         2.104782         0.006367        -2.373250
 H         3.341441         2.187022        -0.955892
