19
Iteration:  3265charge 0 multiplicity 1
 C         0.132078        -0.282122        -0.389601
 C         1.564486        -0.051472        -0.064707
 C         2.252121        -0.814779         1.204157
 O         3.579383        -0.209098         1.384928
 C         4.143681         0.220497         0.061379
 C         3.788319        -0.872907        -1.050870
 C         2.518470        -0.119328        -1.267808
 C         3.043713         1.150032        -0.623123
 O         1.880735         1.314660         0.224505
 H        -0.124122        -1.349113        -0.417211
 H        -0.503216         0.071878         0.380658
 H        -0.143764         0.129442        -1.346010
 H         1.732888        -0.525433         2.097433
 H         2.312310        -1.827738         0.803347
 H         5.191686         0.529480         0.113633
 H         4.424495        -0.671009        -1.892200
 H         4.014394        -1.968824        -0.859975
 H         2.132665        -0.203534        -2.245447
 H         3.250751         2.061417        -1.138020
