19
Iteration:   809charge 0 multiplicity 1
 C         0.093214        -0.432068        -0.359089
 C         1.552339        -0.015729        -0.093272
 C         2.211653        -0.918366         0.994224
 O         3.566768        -0.607982         1.244514
 C         4.132258         0.181579         0.156961
 C         3.947429        -0.596044        -1.268434
 C         2.602149         0.202100        -1.323507
 C         3.057047         1.272354        -0.317278
 O         1.774772         1.304503         0.388331
 H        -0.196413        -0.438752        -1.415913
 H        -0.230418        -1.515042         0.039557
 H        -0.581843         0.300305         0.241016
 H         1.663507        -0.821996         2.014280
 H         2.158218        -1.963726         0.763464
 H         5.042196         0.715569         0.607062
 H         4.653265        -0.085081        -1.960675
 H         4.289999        -1.640145        -1.390768
 H         2.083520         0.395786        -2.308934
 H         3.462506         2.264576        -0.513338
