19
Iteration:  2456
 C         0.037715        -0.284324        -0.418699
 C         1.476854        -0.034243         0.019177
 C         2.251077        -0.848902         1.173977
 O         3.694213        -0.503579         1.316871
 C         4.098329         0.215821         0.174708
 C         3.911304        -0.650131        -1.097818
 C         2.564025        -0.101768        -1.272517
 C         3.040808         1.197182        -0.568909
 O         1.835868         1.325161         0.151680
 H        -0.612161         0.363684         0.309152
 H        -0.344176        -0.031280        -1.461972
 H        -0.351894        -1.225863        -0.168965
 H         1.810070        -0.411850         2.105432
 H         2.092327        -1.907489         1.063474
 H         5.104972         0.670886         0.372540
 H         4.466900        -0.248579        -1.923670
 H         4.307827        -1.701547        -0.877456
 H         2.096839         0.047201        -2.245814
 H         3.354650         2.056674        -1.114348
