19
Iteration:  1267
 C         0.109118        -0.317050        -0.413510
 C         1.608564        -0.077053        -0.086920
 C         2.315620        -0.955075         0.936562
 O         3.562870        -0.374755         1.305003
 C         4.127907         0.190830         0.145243
 C         3.820252        -0.698912        -1.103560
 C         2.505743         0.081727        -1.332529
 C         3.013599         1.253399        -0.425907
 O         1.849983         1.256250         0.411704
 H        -0.598168        -0.443018         0.506751
 H        -0.136840         0.619950        -1.040965
 H         0.097918        -1.186729        -1.161787
 H         1.778436        -1.071329         1.989020
 H         2.453524        -1.972774         0.576253
 H         5.103747         0.623887         0.341871
 H         4.553010        -0.415500        -1.866402
 H         3.850931        -1.762927        -0.904711
 H         1.895316         0.125930        -2.169123
 H         3.350108         2.331242        -0.689503
