19
Iteration:  1754
 C         0.118983        -0.264414        -0.374738
 C         1.619604        -0.123998        -0.102339
 C         2.280174        -0.901285         1.047345
 O         3.503232        -0.218636         1.380684
 C         4.123968         0.235141         0.146118
 C         3.853936        -0.821996        -1.081374
 C         2.519750        -0.047545        -1.319707
 C         3.033863         1.218981        -0.586108
 O         1.889373         1.257870         0.322806
 H        -0.494317         0.356159         0.194622
 H        -0.027199        -0.190972        -1.487996
 H        -0.331228        -1.285020        -0.239587
 H         1.788685        -0.732945         2.031116
 H         2.383558        -1.995485         0.885165
 H         5.201817         0.508904         0.330973
 H         4.571261        -0.618534        -1.797630
 H         3.872320        -1.914009        -0.893382
 H         1.920462         0.201874        -2.359254
 H         3.194473         2.195326        -0.989809
