19
Iteration:   823
 C         0.050875        -0.476125        -0.258336
 C         1.537734        -0.114868        -0.072158
 C         2.122823        -0.919811         1.004765
 O         3.524976        -0.609939         1.194973
 C         4.131344         0.147955         0.180806
 C         4.070793        -0.438243        -1.249618
 C         2.645075         0.168039        -1.318384
 C         3.069190         1.270472        -0.359961
 O         1.810806         1.350714         0.337678
 H        -0.284555        -0.216412        -1.303043
 H        -0.098253        -1.479955         0.008439
 H        -0.559330         0.162773         0.423608
 H         1.545938        -0.706262         2.046928
 H         2.055316        -1.963328         0.663358
 H         5.189233         0.265939         0.457636
 H         4.706621        -0.088402        -1.959850
 H         3.942828        -1.523867        -1.256531
 H         2.110527         0.505637        -2.415146
 H         3.449323         2.225056        -0.637784
