19
Iteration:  2407
 C         0.104842        -0.386604        -0.250794
 C         1.500974        -0.124543        -0.136423
 C         2.251612        -0.847296         1.067431
 O         3.491409        -0.265877         1.350087
 C         4.083674         0.188599         0.136481
 C         3.848215        -0.818049        -1.004546
 C         2.551201         0.004478        -1.408523
 C         3.150275         1.269925        -0.527748
 O         1.951056         1.352538         0.241344
 H        -0.315139        -0.887336         0.598397
 H        -0.587794         0.333482        -0.588626
 H        -0.013321        -1.183494        -1.080182
 H         1.512822        -0.629231         1.826519
 H         2.359623        -1.983980         0.921112
 H         5.084852         0.548813         0.294276
 H         4.634902        -0.560720        -1.874726
 H         3.697062        -1.896370        -1.037441
 H         1.964101        -0.040745        -2.349803
 H         3.660109         2.171856        -1.004429
