19
Iteration:   474
 C        -0.014320        -0.359350        -0.318773
 C         1.546466        -0.109508        -0.084455
 C         2.215032        -1.080749         0.904753
 O         3.594424        -0.754887         1.078685
 C         4.106470         0.207344         0.170349
 C         4.032371        -0.312584        -1.229892
 C         2.651173         0.285707        -1.304081
 C         2.992350         1.314386        -0.251456
 O         1.802460         1.217691         0.503726
 H        -0.337872        -0.365518        -1.418897
 H        -0.181652        -1.270600         0.130035
 H        -0.604311         0.507550         0.141804
 H         1.744514        -0.997914         1.823596
 H         2.214103        -2.196867         0.475368
 H         5.110733         0.634635         0.454449
 H         4.792102         0.091043        -1.891051
 H         4.035118        -1.439212        -1.389428
 H         2.191311         0.576361        -2.213035
 H         3.294968         2.385929        -0.390497
