19
Iteration:   131charge 0 multiplicity 1
 C         0.227958        -0.382301        -0.471284
 C         1.623425        -0.137889        -0.056645
 C         2.298031        -1.151816         0.835474
 O         3.634860        -0.733102         1.156488
 C         4.051134         0.218698         0.102195
 C         3.791610        -0.351159        -1.325000
 C         2.469676         0.440199        -1.298238
 C         2.969025         1.334665        -0.112523
 O         1.821305         1.198944         0.645944
 H        -0.334815        -0.884106         0.290397
 H        -0.130572         0.645653        -0.899402
 H         0.243934        -0.975621        -1.343493
 H         1.763560        -1.305257         1.730910
 H         2.348253        -2.184977         0.412636
 H         5.020310         0.584184         0.383151
 H         4.503087        -0.055030        -2.112193
 H         3.760196        -1.398600        -1.385892
 H         1.990451         0.782284        -2.183826
 H         3.329541         2.368963        -0.130660
