19
Iteration:   134charge 0 multiplicity 1
 C         0.206818        -0.351955        -0.467080
 C         1.633499        -0.148756        -0.076966
 C         2.305892        -1.147737         0.802285
 O         3.641049        -0.714293         1.164009
 C         4.066249         0.231492         0.125673
 C         3.789717        -0.374466        -1.339376
 C         2.467039         0.435536        -1.251106
 C         2.982890         1.340127        -0.115129
 O         1.818024         1.178993         0.639473
 H        -0.425379        -0.804601         0.272882
 H        -0.215819         0.511920        -0.817176
 H         0.236929        -1.041466        -1.424151
 H         1.678085        -1.286889         1.735005
 H         2.420051        -2.193919         0.351653
 H         5.068281         0.674467         0.354916
 H         4.385946         0.005962        -2.099814
 H         3.689036        -1.471142        -1.374845
 H         1.998484         0.694281        -2.233522
 H         3.359009         2.342026        -0.071473
