19
Iteration:  1076charge 0 multiplicity 1
 C         0.117805        -0.536240        -0.232499
 C         1.506302        -0.102348        -0.098443
 C         2.132137        -0.881270         0.996722
 O         3.534697        -0.645058         1.197967
 C         4.154896         0.183970         0.142681
 C         3.984110        -0.453876        -1.270658
 C         2.587915         0.160492        -1.301387
 C         3.090701         1.252129        -0.350988
 O         1.828465         1.411936         0.339136
 H        -0.581480         0.287903        -0.596848
 H         0.026198        -1.258396        -1.115720
 H        -0.446032        -0.887582         0.638022
 H         1.666260        -0.627830         2.044357
 H         1.978012        -2.010853         0.989382
 H         5.169433         0.367925         0.535125
 H         4.686378         0.077322        -1.978667
 H         4.037497        -1.621865        -1.290729
 H         2.153959         0.423690        -2.142022
 H         3.575881         2.190049        -0.629249
