19
Iteration:   647charge 0 multiplicity 1
 C         0.210250        -0.355416        -0.453742
 C         1.608000        -0.107655        -0.116901
 C         2.276102        -1.073311         0.892653
 O         3.526250        -0.441375         1.294331
 C         4.130750         0.185984         0.156813
 C         3.776735        -0.545177        -1.243653
 C         2.526138         0.192751        -1.309939
 C         3.007976         1.314702        -0.333796
 O         1.851477         1.227702         0.571184
 H        -0.263879        -1.151710         0.178057
 H        -0.291416         0.517051        -0.199157
 H         0.099817        -0.452372        -1.605656
 H         1.452761        -1.257189         1.733404
 H         2.548472        -2.037331         0.385484
 H         5.232859         0.359160         0.275927
 H         4.476225        -0.266815        -2.022125
 H         3.711045        -1.729006        -1.188227
 H         2.072487         0.496878        -2.358373
 H         3.448356         2.283806        -0.455431
