19
Iteration:  2867charge 0 multiplicity 1
 C         0.063428        -0.416633        -0.214635
 C         1.588422        -0.095901        -0.083624
 C         2.261915        -0.883719         1.002370
 O         3.519426        -0.410764         1.270573
 C         4.102882         0.159393         0.113977
 C         3.878370        -0.756222        -0.997814
 C         2.611682         0.074254        -1.348088
 C         3.087782         1.293236        -0.574121
 O         1.822273         1.430535         0.245659
 H        -0.173177        -0.330885        -1.301003
 H        -0.240665        -1.371503         0.221361
 H        -0.476366         0.274065         0.343597
 H         1.705314        -0.942250         1.963747
 H         2.336534        -1.987393         0.559046
 H         5.076956         0.479116         0.347219
 H         4.740387        -0.650568        -1.713782
 H         3.684907        -1.775781        -0.711931
 H         2.117633        -0.085807        -2.356721
 H         3.589644         2.277629        -0.717143
