19
Iteration:   214charge 0 multiplicity 1
 C         0.011991        -0.399486        -0.291092
 C         1.543552        -0.067250        -0.096246
 C         2.270845        -1.159992         0.785810
 O         3.659150        -0.841441         1.058672
 C         4.066724         0.175025         0.238022
 C         4.072522        -0.239785        -1.348555
 C         2.597385         0.375043        -1.306190
 C         3.019071         1.318017        -0.126842
 O         1.701978         1.249734         0.538588
 H        -0.640792        -0.078628         0.614138
 H        -0.414806         0.204994        -1.133613
 H        -0.253925        -1.459623        -0.439482
 H         1.752520        -1.118386         1.836005
 H         2.166062        -2.180460         0.288681
 H         4.999797         0.621948         0.627237
 H         4.916495         0.314253        -1.907091
 H         4.211064        -1.342954        -1.570903
 H         2.154319         0.753041        -2.305386
 H         3.309678         2.405310        -0.147124
