19
Iteration:  3518charge 0 multiplicity 1
 C         0.085950        -0.294051        -0.278022
 C         1.541803        -0.091824        -0.080418
 C         2.154743        -0.611452         1.213759
 O         3.618395        -0.102426         1.400513
 C         4.093294         0.167664         0.082374
 C         3.910793        -0.861665        -0.939796
 C         2.522641        -0.284162        -1.264923
 C         3.114243         1.088111        -0.690818
 O         1.892417         1.287370         0.037040
 H        -0.364360        -1.123649         0.345950
 H        -0.522141         0.717745        -0.413347
 H        -0.168917        -0.529327        -1.323146
 H         1.623600        -0.087573         2.083492
 H         2.126942        -1.688834         1.451395
 H         5.127036         0.432379         0.030879
 H         4.461330        -0.833217        -1.867609
 H         4.007105        -1.929634        -0.543583
 H         2.016000        -0.447680        -2.233834
 H         3.407984         1.874055        -1.363920
