19
Iteration:  4659
 C         0.138049        -0.355644        -0.202287
 C         1.632954        -0.040909        -0.035445
 C         2.170595        -0.072932         1.341083
 O         3.535811         0.454555         1.421236
 C         4.143320         0.272633         0.130129
 C         3.742300        -1.368765        -0.427781
 C         2.550649        -0.708227        -1.055651
 C         3.180295         0.731880        -1.120684
 O         1.886162         1.316487        -0.563087
 H        -0.396603         0.537049         0.104035
 H        -0.265911        -0.504256        -1.255380
 H        -0.226812        -1.207140         0.312165
 H         1.502992         0.563069         2.051725
 H         2.033228        -1.067964         1.729237
 H         5.206123         0.643553         0.069214
 H         4.411566        -1.993840        -1.109976
 H         3.475955        -2.088033         0.363840
 H         2.023829        -1.131507        -1.948894
 H         3.755366         1.130069        -1.949838
