19
Iteration:   112
 C         0.195561        -0.470813        -0.458506
 C         1.613971        -0.038589         0.003393
 C         2.216386        -1.104682         0.917946
 O         3.615835        -0.816683         1.034239
 C         4.078261         0.112821         0.146331
 C         3.914526        -0.277225        -1.368911
 C         2.535947         0.454150        -1.255685
 C         2.990141         1.389984        -0.238016
 O         1.771306         1.238825         0.704070
 H        -0.367800        -0.950775         0.334677
 H        -0.419001         0.216456        -0.894103
 H         0.315926        -1.277488        -1.317523
 H         1.727260        -1.019118         1.941056
 H         2.083727        -2.187081         0.540115
 H         5.127361         0.380391         0.391212
 H         4.609716         0.292578        -1.879928
 H         3.882001        -1.354475        -1.657108
 H         1.910755         0.658989        -2.159334
 H         3.361999         2.376698        -0.384358
