19
Iteration:  3472charge 0 multiplicity 1
 C         0.150023        -0.390436        -0.266848
 C         1.605861        -0.013245        -0.008865
 C         2.189844        -0.657890         1.170243
 O         3.556749        -0.159355         1.375003
 C         4.124180         0.215582         0.111173
 C         3.788224        -0.957963        -0.869619
 C         2.505885        -0.224225        -1.310969
 C         3.073440         1.156503        -0.719646
 O         1.913916         1.391572         0.002683
 H        -0.297035        -0.617198         0.740830
 H        -0.271701         0.483510        -0.844854
 H        -0.035138        -1.243793        -0.936624
 H         1.515845        -0.517274         2.032721
 H         2.229908        -1.722685         0.849562
 H         5.187230         0.584619         0.189111
 H         4.499448        -0.971937        -1.678473
 H         3.817219        -1.976451        -0.569678
 H         1.974899        -0.546717        -2.215380
 H         3.564474         1.974678        -1.205099
