19
Iteration:  1709
 C         0.170966        -0.374097        -0.192524
 C         1.541840        -0.040450        -0.046800
 C         2.134939        -0.815806         1.141155
 O         3.550365        -0.520482         1.293062
 C         4.111246         0.193794         0.168000
 C         4.007406        -0.700256        -1.066858
 C         2.619662        -0.005990        -1.256450
 C         3.043836         1.228858        -0.609322
 O         1.788202         1.416510         0.065864
 H        -0.341989        -0.436373         0.756114
 H        -0.341320         0.372893        -0.905350
 H        -0.063265        -1.284366        -0.717556
 H         1.469891        -0.557304         1.991810
 H         1.935071        -1.875846         0.888899
 H         4.980851         0.591866         0.640006
 H         4.539751        -0.376573        -1.927882
 H         4.213213        -1.784410        -0.909731
 H         2.019626        -0.112430        -2.343981
 H         3.577075         1.983012        -1.190562
