19
Iteration:  3883charge 0 multiplicity 1
 C        -0.004537        -0.323190        -0.247540
 C         1.600699        -0.027173         0.003529
 C         2.225680        -0.649022         1.264374
 O         3.585948        -0.257044         1.350111
 C         4.071290         0.248106         0.129442
 C         3.928246        -0.919410        -0.924217
 C         2.513731        -0.259993        -1.180029
 C         3.114306         1.059848        -0.792740
 O         1.882877         1.464489        -0.109261
 H        -0.113677        -1.444172        -0.388490
 H        -0.750007        -0.042608         0.549339
 H        -0.218618         0.233579        -1.202002
 H         1.787589        -0.310821         2.230810
 H         2.159981        -1.743979         1.181928
 H         5.105750         0.621504         0.378488
 H         4.534989        -0.879127        -1.830012
 H         4.056725        -1.969812        -0.535302
 H         1.967390        -0.467146        -2.116386
 H         3.541746         1.832536        -1.490035
