19
Iteration:  4090
 C        -0.001720        -0.365099        -0.239210
 C         1.538210        -0.097121        -0.047774
 C         2.188790        -0.458093         1.333541
 O         3.562946        -0.000741         1.410504
 C         4.115808         0.210873         0.061620
 C         3.871834        -1.057943        -0.871163
 C         2.507318        -0.366523        -1.290571
 C         3.146280         1.012227        -0.778370
 O         1.959131         1.389028        -0.124114
 H        -0.526790        -0.603579         0.706720
 H        -0.410820         0.502025        -0.725161
 H        -0.181063        -1.152149        -1.027649
 H         1.570883         0.101016         2.047655
 H         2.150152        -1.568007         1.568230
 H         5.138302         0.639035         0.163646
 H         4.621634        -1.079220        -1.693007
 H         4.080580        -2.088333        -0.434015
 H         2.062057        -0.596303        -2.235447
 H         3.709417         1.793966        -1.305673
