19
Iteration:  1053charge 0 multiplicity 1
 C         0.123410        -0.356338        -0.301349
 C         1.600415        -0.072294        -0.103187
 C         2.255347        -0.960044         0.972357
 O         3.561852        -0.611218         1.252863
 C         4.055665         0.241108         0.125234
 C         3.951637        -0.526932        -1.234073
 C         2.550063         0.116845        -1.317000
 C         3.019104         1.307129        -0.431601
 O         1.811830         1.271658         0.436556
 H        -0.397452         0.328092        -1.067103
 H         0.049807        -1.342425        -0.770104
 H        -0.532042        -0.301269         0.587074
 H         1.668988        -0.834754         1.918188
 H         2.171021        -2.095950         0.756003
 H         5.039661         0.540695         0.454594
 H         4.709142         0.011612        -1.886885
 H         4.112293        -1.680564        -1.146711
 H         2.075072         0.220797        -2.194151
 H         3.419822         2.274869        -0.529138
