19
Iteration:  3190
 C         0.007838        -0.314340        -0.200556
 C         1.536729        -0.027381        -0.017333
 C         2.210370        -0.820601         1.173312
 O         3.628566        -0.495647         1.334320
 C         4.072492         0.213496         0.139145
 C         4.000131        -0.737852        -1.045637
 C         2.615910        -0.072230        -1.299945
 C         3.036958         1.194023        -0.646672
 O         1.837377         1.448615         0.040474
 H        -0.431321        -0.749523         0.757343
 H        -0.591614         0.564351        -0.497316
 H        -0.188656        -1.123301        -0.880306
 H         1.582507        -0.610003         2.053851
 H         2.098906        -1.930072         0.889546
 H         5.081404         0.547845         0.329989
 H         4.546944        -0.723340        -1.975537
 H         4.054687        -1.871244        -0.892024
 H         2.157254         0.047773        -2.248243
 H         3.437951         2.071142        -1.091678
