19
Iteration:  4818
 C         0.093330        -0.269481        -0.125020
 C         1.587642         0.001992        -0.081796
 C         2.095861         0.093697         1.366682
 O         3.574824         0.440482         1.403531
 C         4.086459         0.194757         0.109958
 C         3.841407        -1.374308        -0.259259
 C         2.576521        -0.840410        -1.033159
 C         3.143040         0.738186        -1.130399
 O         1.901956         1.222471        -0.742113
 H        -0.231421        -0.058808        -1.189180
 H        -0.199696        -1.270836         0.129953
 H        -0.301021         0.484706         0.531869
 H         1.519302         0.769957         1.949745
 H         2.023954        -0.854361         1.866921
 H         5.194873         0.387277         0.036486
 H         4.609251        -1.594485        -1.053055
 H         3.847953        -2.183804         0.629266
 H         2.175192        -1.379117        -1.935283
 H         3.606949         1.266712        -2.071245
