19
Iteration:  1473
 C         0.002101        -0.329435        -0.289256
 C         1.593693        -0.102449        -0.046364
 C         2.221950        -0.859032         1.040951
 O         3.575522        -0.456095         1.310351
 C         4.082659         0.166727         0.159990
 C         3.958458        -0.638006        -1.079320
 C         2.593111        -0.016596        -1.329646
 C         3.096847         1.211409        -0.484612
 O         1.798933         1.377630         0.181206
 H        -0.226356        -0.385568        -1.298099
 H        -0.125046        -1.321114         0.168422
 H        -0.681394         0.451600         0.135986
 H         1.713382        -0.604168         1.879981
 H         2.249040        -1.987438         0.960464
 H         5.070714         0.500445         0.573151
 H         4.660112        -0.188352        -1.827519
 H         4.169665        -1.720031        -1.001170
 H         2.096639        -0.105943        -2.456856
 H         3.458570         2.112895        -0.986276
