19
Iteration:  4624
 C         0.070437        -0.403496        -0.129975
 C         1.620542        -0.011460        -0.058518
 C         2.112580        -0.058453         1.300598
 O         3.481317         0.409612         1.377664
 C         4.122562         0.221911         0.106220
 C         3.821462        -1.308071        -0.443785
 C         2.519437        -0.680233        -1.093146
 C         3.231209         0.660345        -1.066683
 O         1.975649         1.365441        -0.515996
 H        -0.450092         0.432780        -0.726119
 H        -0.055989        -1.414754        -0.590477
 H        -0.414202        -0.364892         0.866695
 H         1.476505         0.640917         1.933246
 H         2.013234        -1.108482         1.635989
 H         5.153458         0.643556         0.332323
 H         4.494437        -1.483195        -1.315335
 H         3.763676        -2.120441         0.234928
 H         2.059681        -1.200845        -2.021825
 H         3.637710         1.239456        -1.864536
