19
Iteration:  1593charge 0 multiplicity 1
 C         0.056922        -0.335007        -0.206162
 C         1.534865        -0.162125        -0.180447
 C         2.145442        -0.801283         1.106039
 O         3.524434        -0.406951         1.292045
 C         4.100151         0.224408         0.206900
 C         4.026289        -0.731413        -1.099686
 C         2.609641        -0.023089        -1.330571
 C         3.038025         1.190254        -0.554697
 O         1.848047         1.382675         0.186585
 H        -0.309807         0.183314         0.687982
 H        -0.234773         0.089978        -1.214350
 H        -0.119858        -1.479762        -0.137059
 H         1.647006        -0.500419         2.078939
 H         2.112935        -1.931140         0.958695
 H         5.162358         0.589421         0.471203
 H         4.759411        -0.295175        -1.901600
 H         4.182308        -1.804848        -0.837295
 H         2.150705        -0.109580        -2.309045
 H         3.513047         1.994911        -1.082352
