19
Iteration:  1922
 C         0.037959        -0.432750        -0.268966
 C         1.583436        -0.045212        -0.110361
 C         2.160784        -0.798404         1.111317
 O         3.541884        -0.371834         1.413943
 C         4.128444         0.133562         0.117672
 C         3.979146        -0.788894        -1.125634
 C         2.564831         0.004794        -1.294307
 C         3.070293         1.247957        -0.569482
 O         1.834012         1.379388         0.149716
 H        -0.450509        -0.379276         0.751194
 H        -0.340644         0.309268        -0.965874
 H         0.120444        -1.335176        -0.817215
 H         1.652306        -0.538935         2.109240
 H         2.169263        -1.925421         0.995019
 H         5.128601         0.605885         0.458969
 H         4.640868        -0.517435        -1.954325
 H         3.943931        -1.797084        -0.931660
 H         2.197752         0.132181        -2.339040
 H         3.585557         2.162350        -0.974004
