19
Iteration:  3405
 C         0.075033        -0.298346        -0.280178
 C         1.549713        -0.151741        -0.094303
 C         2.128087        -0.717225         1.244148
 O         3.551733        -0.181976         1.389970
 C         4.125155         0.183801         0.092861
 C         3.929954        -0.830074        -0.980518
 C         2.533781        -0.202390        -1.305292
 C         3.067559         1.071493        -0.737001
 O         1.945112         1.384618         0.103135
 H        -0.220754         0.784171        -0.328074
 H        -0.048395        -0.858687        -1.204804
 H        -0.467378        -0.801748         0.596666
 H         1.664703        -0.311378         2.144833
 H         2.106557        -1.810423         1.154199
 H         5.130513         0.637724         0.406782
 H         4.608808        -0.591588        -1.817208
 H         4.113429        -1.840753        -0.859720
 H         1.966169        -0.375189        -2.231980
 H         3.251657         1.951649        -1.355526
