19
Iteration:  3396charge 0 multiplicity 1
 C         0.081511        -0.295333        -0.316633
 C         1.534576        -0.090860         0.000970
 C         2.218656        -0.676110         1.215319
 O         3.547819        -0.204383         1.323158
 C         4.075776         0.241748         0.095890
 C         3.927432        -0.891372        -1.018999
 C         2.508756        -0.252609        -1.257101
 C         3.057520         1.105688        -0.684647
 O         1.935905         1.361315         0.108859
 H        -0.258965         0.745255        -0.704497
 H         0.060890        -1.058411        -1.149716
 H        -0.644771        -0.675562         0.440152
 H         1.605264        -0.581761         2.102572
 H         2.196682        -1.764487         1.068577
 H         5.043996         0.752195         0.341689
 H         4.636291        -0.834129        -1.864904
 H         4.095388        -1.895537        -0.460741
 H         2.162776        -0.154545        -2.262463
 H         3.476270         1.955917        -1.168839
