19
Iteration:  4856charge 0 multiplicity 1
 C         0.102850        -0.241402        -0.057837
 C         1.562930        -0.030034        -0.102444
 C         2.051658         0.041551         1.384565
 O         3.447139         0.504359         1.298783
 C         4.129588         0.165086         0.071880
 C         3.864949        -1.305179        -0.251811
 C         2.572792        -0.842460        -0.945473
 C         3.248236         0.626281        -1.154764
 O         1.998411         1.236610        -0.727214
 H        -0.323947         0.761536        -0.372675
 H        -0.370004        -1.023516        -0.822747
 H        -0.409218        -0.597551         0.934952
 H         1.594397         0.845216         2.045592
 H         1.877577        -1.024822         1.674966
 H         5.013245         0.789667         0.179339
 H         4.490377        -1.521237        -1.120578
 H         3.950771        -2.048940         0.460293
 H         2.057819        -1.399320        -1.764928
 H         3.564256         1.103941        -2.049711
