19
Iteration:  3143
 C         0.117597        -0.264695        -0.384706
 C         1.556513        -0.094258        -0.018960
 C         2.259865        -0.893950         1.180882
 O         3.559591        -0.229601         1.388682
 C         4.110966         0.178000         0.086695
 C         3.845161        -0.797132        -1.133768
 C         2.493648        -0.074927        -1.405960
 C         3.079910         1.218022        -0.593139
 O         1.913121         1.303549         0.293373
 H        -0.560811         0.258728         0.266349
 H        -0.077839         0.070969        -1.388243
 H        -0.272013        -1.326864        -0.240351
 H         1.577950        -0.720403         2.045331
 H         2.425264        -2.048136         1.038344
 H         5.091256         0.669276         0.452249
 H         4.719927        -0.755681        -1.820705
 H         3.840251        -1.918793        -1.015658
 H         1.778529        -0.166230        -2.241222
 H         3.317899         2.195303        -1.103630
