19
Iteration:  2970
 C         0.102796        -0.415480        -0.203666
 C         1.570337        -0.016250        -0.044054
 C         2.110604        -0.736960         1.151643
 O         3.618059        -0.534196         1.307095
 C         4.129052         0.154471         0.190985
 C         3.991295        -0.721215        -1.186231
 C         2.563975         0.060288        -1.315773
 C         3.100983         1.228962        -0.572960
 O         1.789013         1.363284         0.110959
 H        -0.416758         0.366229        -0.754759
 H        -0.073433        -1.336901        -0.742493
 H        -0.465863        -0.396495         0.789305
 H         1.596159        -0.600129         2.123524
 H         1.991688        -1.902442         0.905200
 H         5.097694         0.582175         0.630110
 H         4.608799        -0.346161        -2.006346
 H         3.904119        -1.829651        -1.012430
 H         2.076346         0.011583        -2.248101
 H         3.307866         2.227352        -0.943556
