19
Iteration:  3047charge 0 multiplicity 1
 C         0.059935        -0.247624        -0.345175
 C         1.585300        -0.043905        -0.052564
 C         2.224086        -0.834555         1.139191
 O         3.649104        -0.378300         1.298569
 C         4.068548         0.218629         0.123183
 C         3.949866        -0.761222        -1.061693
 C         2.548583        -0.096683        -1.296140
 C         3.014698         1.170758        -0.554393
 O         1.819747         1.321354         0.207975
 H        -0.571971         0.643255        -0.243042
 H        -0.104561        -0.625985        -1.324927
 H        -0.473968        -0.961120         0.353841
 H         1.829555        -0.720709         2.148851
 H         2.154240        -1.850864         0.847042
 H         5.119934         0.493122         0.384941
 H         4.728904        -0.451695        -1.740795
 H         4.010580        -1.876288        -1.208859
 H         1.977903        -0.060460        -2.199678
 H         3.381761         2.145863        -0.876797
