19
Iteration:  4124charge 0 multiplicity 1
 C         0.122400        -0.300299        -0.141061
 C         1.590056        -0.063658        -0.012024
 C         2.110542        -0.484206         1.332331
 O         3.501057        -0.048855         1.380077
 C         4.097486         0.192472         0.069563
 C         3.954252        -1.062810        -0.863249
 C         2.570374        -0.446842        -1.240762
 C         3.123002         1.042935        -0.865930
 O         1.881872         1.427113        -0.233773
 H        -0.281931        -1.224332         0.325297
 H        -0.344778         0.535938         0.333756
 H        -0.122312        -0.356561        -1.178265
 H         1.513247        -0.020645         2.120921
 H         1.965037        -1.606745         1.379665
 H         5.114783         0.606470         0.418766
 H         4.542788        -0.921611        -1.796001
 H         4.076502        -2.040611        -0.246263
 H         2.021486        -0.827765        -2.055477
 H         3.536099         1.972195        -1.333691
