19
Iteration:  3983
 C         0.033019        -0.265975        -0.217176
 C         1.570918        -0.034094         0.048102
 C         2.172607        -0.642759         1.268208
 O         3.598387        -0.197017         1.393831
 C         4.101592         0.240952         0.079346
 C         3.938614        -0.950739        -0.869407
 C         2.528735        -0.308533        -1.224903
 C         3.038122         1.054819        -0.866479
 O         1.886092         1.424015        -0.126641
 H        -0.168367         0.216385        -1.247986
 H        -0.028389        -1.342860        -0.510707
 H        -0.689830         0.032527         0.513462
 H         1.617834        -0.172563         2.081324
 H         2.154618        -1.771408         1.496371
 H         5.201345         0.608529         0.268014
 H         4.697461        -0.925854        -1.663069
 H         4.055709        -1.966130        -0.355004
 H         2.233751        -0.559363        -2.235418
 H         3.533401         1.823271        -1.568156
