19
Iteration:  4554
 C         0.056901        -0.281454        -0.175992
 C         1.563296        -0.051795        -0.011085
 C         2.146492        -0.213562         1.415242
 O         3.473899         0.328253         1.357296
 C         4.138510         0.202313         0.096515
 C         3.891032        -1.253937        -0.444710
 C         2.568248        -0.648710        -1.141346
 C         3.158996         0.775301        -1.127835
 O         1.939453         1.363466        -0.483079
 H        -0.145946        -1.284872        -0.625842
 H        -0.581448        -0.030414         0.739629
 H        -0.335206         0.347268        -1.072555
 H         1.706456         0.348662         2.185319
 H         2.158668        -1.311612         1.819594
 H         5.137459         0.538719         0.168432
 H         4.593362        -1.365479        -1.191303
 H         3.790744        -2.058705         0.307142
 H         2.136599        -1.213273        -2.008285
 H         3.609225         1.334282        -1.989711
