19
Iteration:  1479
 C         0.062470        -0.324990        -0.322166
 C         1.521371        -0.101235        -0.066624
 C         2.261526        -0.858260         1.053272
 O         3.550051        -0.425489         1.346712
 C         4.096278         0.186675         0.198062
 C         3.950914        -0.666726        -1.129156
 C         2.569769        -0.015870        -1.348507
 C         3.102117         1.212449        -0.478569
 O         1.836822         1.341660         0.199312
 H        -0.308951        -0.340289        -1.418710
 H        -0.281254        -1.338948         0.042015
 H        -0.641614         0.322867         0.188949
 H         1.761282        -0.572463         2.103927
 H         2.226841        -1.935057         0.946556
 H         5.111313         0.550728         0.301490
 H         4.591173        -0.237148        -1.888364
 H         4.063335        -1.772275        -1.031841
 H         2.105075        -0.014764        -2.236118
 H         3.374802         2.181691        -0.944708
