19
Iteration:  4595charge 0 multiplicity 1
 C         0.073159        -0.282758        -0.127198
 C         1.587470        -0.010225        -0.017732
 C         2.113204        -0.084818         1.397566
 O         3.487038         0.313324         1.352938
 C         4.073700         0.165157         0.104345
 C         3.901212        -1.226915        -0.450185
 C         2.606436        -0.698691        -1.151098
 C         3.193340         0.705473        -1.085650
 O         1.893760         1.319563        -0.546058
 H        -0.201408        -0.278228        -1.136460
 H        -0.207388        -1.279795         0.211558
 H        -0.371998         0.558696         0.367076
 H         1.541997         0.673916         1.980404
 H         2.033062        -1.134356         1.740636
 H         5.075458         0.575318         0.309985
 H         4.765483        -1.414981        -1.184883
 H         3.996281        -2.182203         0.184395
 H         2.022778        -1.106231        -1.915879
 H         3.633932         1.360769        -1.861672
