19
Iteration:  1584
 C         0.084086        -0.344562        -0.213193
 C         1.595034        -0.160358        -0.126137
 C         2.158355        -0.794337         1.119493
 O         3.473567        -0.457560         1.321780
 C         4.120281         0.189243         0.227429
 C         4.041874        -0.669148        -1.105347
 C         2.605985        -0.033136        -1.387817
 C         3.042996         1.184266        -0.592071
 O         1.862502         1.391408         0.175838
 H        -0.335425         0.317923         0.632662
 H        -0.455783        -0.244613        -1.153741
 H        -0.144817        -1.374118         0.182421
 H         1.527025        -0.387756         1.805410
 H         1.985493        -1.926859         1.154321
 H         5.003295         0.772799         0.633425
 H         4.653244        -0.499234        -2.076751
 H         4.209044        -1.742945        -0.989175
 H         2.036321         0.183861        -2.472365
 H         3.327115         2.180549        -1.075845
