19
Iteration:  2696
 C         0.115448        -0.299739        -0.382054
 C         1.588412        -0.092775        -0.004997
 C         2.224197        -0.839053         1.161325
 O         3.640904        -0.562273         1.190557
 C         4.097315         0.174199         0.114788
 C         3.944245        -0.613777        -1.063511
 C         2.510045        -0.136132        -1.221440
 C         3.040924         1.282209        -0.535473
 O         1.729584         1.435166         0.241324
 H         0.103113        -0.252865        -1.512278
 H        -0.361001        -1.309437        -0.095984
 H        -0.440581         0.579353         0.009176
 H         1.768784        -0.537333         2.136341
 H         2.281186        -1.964930         1.157834
 H         5.073895         0.555478         0.469102
 H         4.565843        -0.334375        -1.959981
 H         4.182457        -1.769220        -0.972665
 H         2.199549        -0.111551        -2.224498
 H         3.411480         2.165103        -1.066297
