19
Iteration:  3002
 C         0.154991        -0.396820        -0.320532
 C         1.596619        -0.008685        -0.073739
 C         2.235713        -0.842607         1.041510
 O         3.502836        -0.239180         1.323136
 C         4.049950         0.109982         0.119297
 C         3.823310        -0.855494        -1.077286
 C         2.501297         0.051213        -1.353129
 C         3.135983         1.221606        -0.579309
 O         1.883495         1.326116         0.340631
 H        -0.452722         0.472571        -0.362845
 H         0.003266        -0.977573        -1.219433
 H        -0.316343        -0.973096         0.550516
 H         1.714174        -0.765459         1.987826
 H         2.533924        -1.853495         0.848930
 H         5.096400         0.545686         0.316363
 H         4.541541        -0.715183        -1.887744
 H         4.091536        -1.945914        -0.986842
 H         2.172223        -0.064577        -2.358370
 H         3.420010         2.232105        -0.912716
