19
Iteration:  4463charge 0 multiplicity 1
 C         0.101514        -0.332675        -0.202315
 C         1.543677        -0.011523        -0.000353
 C         2.098003        -0.153271         1.405466
 O         3.519482         0.198819         1.384155
 C         4.104459         0.146017         0.086605
 C         3.922750        -1.148442        -0.596928
 C         2.594371        -0.637514        -1.152992
 C         3.121788         0.838817        -1.059391
 O         1.946506         1.341997        -0.411318
 H        -0.496650         0.464220         0.264201
 H        -0.202743        -0.408331        -1.254000
 H        -0.164625        -1.182054         0.381977
 H         1.495291         0.377095         2.145491
 H         1.874673        -1.230369         1.566191
 H         5.140927         0.563389         0.313092
 H         4.705830        -1.285004        -1.390424
 H         3.762267        -2.004284         0.072373
 H         2.003975        -1.101862        -1.895205
 H         3.555289         1.442616        -1.879302
