19
Iteration:  3707charge 0 multiplicity 1
 C         0.033885        -0.330700        -0.175322
 C         1.562822        -0.060320        -0.047710
 C         2.228875        -0.743989         1.135279
 O         3.493591        -0.106350         1.380843
 C         4.186912         0.187797         0.120021
 C         3.879163        -0.950088        -0.908419
 C         2.536155        -0.239686        -1.275590
 C         3.113089         1.133899        -0.714372
 O         1.893356         1.426760        -0.076668
 H        -0.154565        -1.279947         0.377577
 H        -0.501396         0.568679         0.099244
 H        -0.389059        -0.524416        -1.243374
 H         1.806482        -0.528425         2.118041
 H         2.489015        -1.927006         0.972753
 H         5.178237         0.558175         0.437866
 H         4.470263        -1.009730        -1.757021
 H         3.877541        -1.924295        -0.376215
 H         1.906668        -0.308635        -2.194310
 H         3.598231         1.988349        -1.244203
