19
Iteration:  2745charge 0 multiplicity 1
 C         0.154039        -0.363113        -0.208077
 C         1.588121        -0.074496        -0.106628
 C         2.203622        -0.867547         1.016182
 O         3.477203        -0.292376         1.338443
 C         4.045740         0.162505         0.173856
 C         3.827588        -0.776654        -1.095358
 C         2.576435         0.058024        -1.360108
 C         3.094512         1.210891        -0.518956
 O         1.908905         1.306039         0.197167
 H        -0.497890         0.295268        -0.734679
 H         0.187506        -1.319567        -0.610796
 H        -0.092141        -0.453492         0.857783
 H         1.503034        -0.759961         1.912624
 H         2.389210        -2.009114         0.847827
 H         5.086223         0.445885         0.385385
 H         4.537194        -0.354187        -1.794100
 H         4.075654        -1.757190        -1.313173
 H         2.091174         0.073896        -2.390768
 H         3.620603         2.117561        -0.867230
