19
Iteration:  2791charge 0 multiplicity 1
 C         0.089784        -0.366166        -0.372234
 C         1.577194        -0.009032        -0.081632
 C         2.257296        -0.818769         1.113585
 O         3.613266        -0.377318         1.280254
 C         4.088604         0.239557         0.114644
 C         3.842085        -0.723474        -1.029788
 C         2.504439        -0.083442        -1.282864
 C         3.061437         1.209649        -0.505494
 O         1.878503         1.293398         0.245243
 H        -0.268049         0.644065        -0.700139
 H         0.113338        -0.954024        -1.292290
 H        -0.470914        -0.739232         0.403099
 H         1.788223        -0.615389         2.073415
 H         2.026931        -1.935761         0.822914
 H         5.060364         0.568396         0.291326
 H         4.526965        -0.757981        -1.857110
 H         3.966036        -1.727040        -0.756672
 H         1.992751        -0.005508        -2.265248
 H         3.312537         2.174249        -0.924922
