19
Iteration:  3564charge 0 multiplicity 1
 C         0.108805        -0.339757        -0.077783
 C         1.565479        -0.006342        -0.101673
 C         2.197334        -0.668472         1.143232
 O         3.485845        -0.181796         1.421755
 C         4.175172         0.199735         0.150890
 C         3.879316        -0.932639        -0.878679
 C         2.530012        -0.243688        -1.301964
 C         3.150478         1.044815        -0.773969
 O         1.847270         1.435894        -0.154765
 H         0.180467        -1.446088        -0.026072
 H        -0.555648         0.073773         0.725513
 H        -0.535649        -0.067920        -0.948471
 H         1.593407        -0.401446         2.050484
 H         2.165570        -1.766211         1.074355
 H         5.137289         0.579581         0.446567
 H         4.584613        -0.684711        -1.705180
 H         4.074994        -2.026366        -0.524803
 H         2.159618        -0.187484        -2.343114
 H         3.548397         1.916124        -1.280483
