19
Iteration:  3175charge 0 multiplicity 1
 C         0.070552        -0.288057        -0.213644
 C         1.557484        -0.075446        -0.058359
 C         2.155820        -0.789560         1.116510
 O         3.540723        -0.377864         1.257733
 C         4.181584         0.207932         0.106497
 C         3.963962        -0.764515        -1.099563
 C         2.522443        -0.148056        -1.303896
 C         3.090868         1.200283        -0.570558
 O         1.844220         1.341866         0.181046
 H        -0.487055        -0.244147         0.705700
 H        -0.380405         0.563838        -0.708008
 H        -0.066387        -1.191885        -0.907256
 H         1.786138        -0.372023         2.068610
 H         2.121708        -1.947440         1.055979
 H         5.111225         0.678141         0.612022
 H         4.698551        -0.326000        -1.799371
 H         4.114016        -1.797380        -0.736398
 H         1.929727        -0.337844        -2.248131
 H         3.464072         2.125882        -1.119785
