19
Iteration:  4323charge 0 multiplicity 1
 C         0.137378        -0.339514        -0.264026
 C         1.579490        -0.055526        -0.061087
 C         2.138437        -0.321404         1.276686
 O         3.568078         0.121075         1.419731
 C         4.140384         0.266937         0.095276
 C         3.840417        -1.188103        -0.666027
 C         2.558888        -0.568714        -1.161326
 C         3.108300         0.926718        -0.951420
 O         1.893722         1.417445        -0.238979
 H        -0.339354        -0.828424         0.621723
 H        -0.464168         0.664038        -0.223552
 H        -0.013340        -0.950790        -1.168604
 H         1.623258         0.104223         2.144065
 H         2.054936        -1.375477         1.648851
 H         5.158982         0.836894         0.045275
 H         4.306570        -1.437581        -1.552087
 H         3.700657        -2.087422        -0.023030
 H         2.056005        -0.954935        -2.027465
 H         3.457807         1.475097        -1.914663
