19
Iteration:  1558charge 0 multiplicity 1
 C         0.105882        -0.362305        -0.271775
 C         1.566478        -0.089818        -0.060799
 C         2.182865        -0.787745         1.110348
 O         3.539917        -0.423865         1.279165
 C         4.099013         0.132421         0.197108
 C         3.946662        -0.719282        -1.074840
 C         2.590938        -0.003985        -1.346673
 C         3.096340         1.229328        -0.507762
 O         1.817413         1.397439         0.144970
 H        -0.565888         0.446187        -0.100475
 H        -0.172437        -0.864243        -1.301546
 H        -0.137702        -1.216134         0.445951
 H         1.571515        -0.680666         2.091573
 H         2.140799        -1.861333         0.835081
 H         5.084612         0.588490         0.420480
 H         4.543776        -0.387213        -1.951104
 H         4.208695        -1.823390        -1.019514
 H         2.100535        -0.009785        -2.215373
 H         3.414255         2.139572        -0.866934
