19
Iteration:  3239charge 0 multiplicity 1
 C         0.085866        -0.448611        -0.252442
 C         1.576913        -0.091988        -0.095896
 C         2.178705        -0.783455         1.167645
 O         3.488889        -0.193086         1.306945
 C         4.112781         0.178418         0.134571
 C         3.833598        -0.845918        -1.096924
 C         2.565328         0.003242        -1.363305
 C         3.122999         1.150438        -0.622214
 O         1.959117         1.373887         0.270218
 H        -0.334231        -1.358446         0.212676
 H        -0.523567         0.441048         0.128029
 H        -0.173675        -0.588846        -1.389171
 H         1.668832        -0.433894         2.099288
 H         2.183982        -1.815702         0.870713
 H         5.220624         0.404383         0.266773
 H         4.674525        -0.933647        -1.852514
 H         3.784407        -1.899240        -0.885496
 H         2.057675        -0.088026        -2.411321
 H         3.524720         2.132493        -1.054460
