19
Iteration:   568charge 0 multiplicity 1
 C         0.045860        -0.359259        -0.342761
 C         1.564109        -0.097300        -0.101425
 C         2.216071        -1.056350         0.947190
 O         3.565501        -0.718937         1.213883
 C         4.134315         0.194971         0.162225
 C         4.065589        -0.371736        -1.314402
 C         2.567230         0.261747        -1.312440
 C         2.983395         1.302930        -0.270044
 O         1.812557         1.264918         0.473204
 H        -0.551082         0.345984         0.163723
 H        -0.107870        -0.339845        -1.441435
 H        -0.283993        -1.351449         0.023774
 H         1.511726        -0.779617         1.862360
 H         2.087226        -2.110266         0.638265
 H         5.120638         0.529574         0.543443
 H         4.810609        -0.070316        -2.048851
 H         4.079400        -1.473570        -1.428119
 H         1.910413         0.397732        -2.326842
 H         3.420414         2.293923        -0.518203
