19
Iteration:  4230charge 0 multiplicity 1
 C         0.044468        -0.366250        -0.172128
 C         1.556051        -0.014338        -0.052871
 C         2.105871        -0.335818         1.300998
 O         3.576995        -0.008966         1.389424
 C         4.186478         0.177167         0.057200
 C         3.969740        -1.093541        -0.758755
 C         2.517872        -0.400754        -1.155570
 C         3.132994         0.887717        -0.848177
 O         1.848248         1.430413        -0.316978
 H        -0.301295         0.358708        -0.965936
 H        -0.205765        -1.337146        -0.598775
 H        -0.544509        -0.217890         0.824446
 H         1.677162         0.038773         2.232702
 H         2.041999        -1.390186         1.431802
 H         5.032471         0.601272         0.428841
 H         4.786802        -1.357843        -1.507510
 H         3.929589        -1.886684        -0.049650
 H         2.070882        -0.616748        -2.155555
 H         3.512999         1.517491        -1.593525
