19
Iteration:  4816
 C         0.108135        -0.271125        -0.145200
 C         1.596340        -0.010061        -0.067976
 C         2.104837         0.092042         1.373237
 O         3.562238         0.439201         1.389061
 C         4.072068         0.196750         0.104558
 C         3.831472        -1.372986        -0.270333
 C         2.569968        -0.820790        -1.018471
 C         3.151939         0.726276        -1.125787
 O         1.910142         1.225282        -0.744685
 H        -0.194354        -0.168228        -1.151499
 H        -0.161589        -1.217351         0.215895
 H        -0.292637         0.479956         0.511415
 H         1.469395         0.805707         1.932078
 H         2.029668        -0.897124         1.891646
 H         5.167126         0.322251         0.039753
 H         4.561032        -1.565771        -1.063918
 H         3.845386        -2.136729         0.623078
 H         2.167402        -1.359043        -1.843203
 H         3.598644         1.330826        -2.025263
