19
Iteration:  3352
 C         0.116591        -0.403793        -0.269495
 C         1.611186        -0.037581        -0.065813
 C         2.280552        -0.721149         1.159317
 O         3.541163        -0.217602         1.434579
 C         4.062187         0.187757         0.138277
 C         3.805577        -0.871719        -1.030034
 C         2.563051        -0.068891        -1.370939
 C         3.091848         1.120060        -0.648593
 O         1.886489         1.364691         0.074108
 H        -0.121975        -0.283365        -1.370530
 H        -0.116649        -1.379847         0.166537
 H        -0.517203         0.345938         0.272074
 H         1.689163        -0.494942         2.063855
 H         2.184017        -1.814415         1.034906
 H         5.132971         0.484485         0.349814
 H         4.597243        -0.827341        -1.838364
 H         3.589506        -1.987456        -0.839688
 H         1.882785        -0.187681        -2.176960
 H         3.433484         2.032752        -1.082137
