19
Iteration:   587
 C         0.143974        -0.364662        -0.294826
 C         1.582260        -0.116049        -0.108232
 C         2.160227        -1.059763         0.983018
 O         3.562634        -0.713864         1.130762
 C         4.057187         0.218603         0.209018
 C         3.959243        -0.375057        -1.223290
 C         2.614375         0.218602        -1.311995
 C         3.076070         1.275657        -0.349210
 O         1.781711         1.265847         0.400127
 H        -0.337396         0.089835         0.549255
 H        -0.287645         0.189261        -1.202573
 H        -0.130959        -1.334813        -0.262009
 H         1.634409        -0.967346         2.008357
 H         2.108144        -2.166025         0.608597
 H         4.993280         0.522228         0.631896
 H         4.596699         0.341411        -1.807213
 H         4.222415        -1.339569        -1.455748
 H         2.138454         0.592602        -2.293867
 H         3.395414         2.344843        -0.451457
