19
Iteration:    32charge 0 multiplicity 1
 C         0.036046        -0.291858        -0.358516
 C         1.572466        -0.139504        -0.104137
 C         2.402088        -1.241763         0.608724
 O         3.527027        -0.574644         1.147861
 C         4.079262         0.261245         0.186780
 C         3.914223        -0.385023        -1.283801
 C         2.500739         0.339816        -1.224514
 C         2.970170         1.269676        -0.166793
 O         1.886101         1.114770         0.680426
 H        -0.618121        -0.024148         0.535509
 H        -0.341642         0.583206        -1.177326
 H        -0.177102        -1.296832        -0.660350
 H         1.945153        -1.600645         1.515037
 H         2.793342        -2.123583        -0.122332
 H         5.075798         0.607835         0.439612
 H         4.480927         0.301398        -1.943702
 H         4.133288        -1.354410        -1.533009
 H         2.145518         0.865135        -2.071436
 H         3.214001         2.320860        -0.437303
