19
Iteration:  2528charge 0 multiplicity 1
 C         0.124060        -0.398213        -0.279490
 C         1.571032        -0.018902        -0.092895
 C         2.261826        -0.921410         1.015811
 O         3.544545        -0.353567         1.345648
 C         4.115775         0.171887         0.124360
 C         3.835551        -0.802012        -1.070871
 C         2.549782         0.052582        -1.284449
 C         3.130400         1.201202        -0.501695
 O         1.808506         1.456291         0.240719
 H        -0.548610         0.230172        -0.865142
 H        -0.070637        -1.362388        -0.776992
 H        -0.562106        -0.543456         0.605140
 H         1.684596        -1.108102         1.908698
 H         2.476925        -1.833554         0.367069
 H         5.110249         0.522363         0.247666
 H         4.713782        -0.591319        -1.803194
 H         3.732715        -1.886186        -1.161179
 H         2.120904         0.062396        -2.300050
 H         3.595298         2.143773        -0.852309
