19
Iteration:  1713charge 0 multiplicity 1
 C         0.136978        -0.363687        -0.208626
 C         1.537491        -0.073076        -0.033427
 C         2.171691        -0.829592         1.144688
 O         3.526653        -0.506353         1.270712
 C         4.114086         0.196103         0.163660
 C         4.044953        -0.731197        -1.068278
 C         2.583229        -0.034993        -1.264477
 C         3.061786         1.255974        -0.604617
 O         1.790212         1.431896         0.077912
 H        -0.411840        -0.234880         0.728728
 H        -0.275893         0.383071        -0.873131
 H        -0.000936        -1.390935        -0.686396
 H         1.331012        -0.563309         1.945262
 H         2.074694        -1.890164         0.980408
 H         5.042927         0.623505         0.704088
 H         4.543389        -0.326055        -1.953803
 H         4.153782        -1.802933        -0.943235
 H         2.140467        -0.046582        -2.218786
 H         3.493647         2.092940        -1.139182
