19
Iteration:  1651charge 0 multiplicity 1
 C         0.176791        -0.369269        -0.398486
 C         1.580288        -0.069767        -0.089093
 C         2.259844        -0.813774         1.125814
 O         3.506383        -0.208467         1.362612
 C         4.102531         0.191522         0.114509
 C         3.807003        -0.861834        -1.066358
 C         2.502822        -0.005763        -1.336240
 C         3.043051         1.214468        -0.556779
 O         1.920191         1.301709         0.283598
 H        -0.471879        -0.999967         0.322697
 H        -0.421640         0.483502        -0.660982
 H         0.264480        -0.965089        -1.316127
 H         1.787702        -0.672183         2.016512
 H         2.353852        -1.951262         1.023832
 H         5.103726         0.494393         0.414765
 H         4.519223        -0.757996        -1.980549
 H         3.857384        -1.909507        -0.736015
 H         1.952415        -0.140838        -2.364847
 H         3.524218         2.197799        -0.900503
