19
Iteration:  4036charge 0 multiplicity 1
 C        -0.016181        -0.398060        -0.193397
 C         1.550834         0.001625        -0.056237
 C         2.153088        -0.575064         1.295374
 O         3.548221        -0.004004         1.373838
 C         4.132393         0.139991         0.152216
 C         3.876493        -1.032301        -0.919737
 C         2.573767        -0.278908        -1.282596
 C         3.115212         1.066488        -0.823606
 O         1.949226         1.386260        -0.118788
 H        -0.553513         0.503398         0.059108
 H        -0.322524        -0.852471        -1.076238
 H        -0.241083        -1.071602         0.561059
 H         1.689114        -0.352689         2.237481
 H         2.359788        -1.601075         1.209491
 H         5.209151         0.435976         0.312846
 H         4.592895        -0.988000        -1.739272
 H         3.699169        -1.943993        -0.325982
 H         2.298489        -0.461066        -2.294709
 H         3.646385         1.834134        -1.427997
