19
Iteration:  4948charge 0 multiplicity 1
 C         0.111546        -0.314052        -0.047050
 C         1.611474         0.027065        -0.052072
 C         2.028936         0.188984         1.349995
 O         3.410275         0.585070         1.366190
 C         4.163714         0.184384         0.166523
 C         3.839183        -1.349647        -0.297104
 C         2.515512        -0.846409        -0.934403
 C         3.187058         0.528710        -1.195661
 O         2.055542         1.197089        -0.820997
 H         0.045668        -1.402744         0.118842
 H        -0.442635         0.314016         0.618060
 H        -0.324607        -0.138512        -1.062880
 H         1.504855         1.036644         1.789182
 H         1.987483        -0.809881         1.932311
 H         5.215760         0.532805         0.139240
 H         4.506281        -1.656315        -1.106605
 H         3.891338        -2.126886         0.513623
 H         2.089934        -1.496510        -1.667230
 H         3.550095         0.916663        -2.240806
