19
Iteration:  1260
 C         0.163205        -0.322262        -0.420365
 C         1.570724        -0.104457        -0.075569
 C         2.323133        -0.968876         0.982568
 O         3.574024        -0.375390         1.304089
 C         4.084743         0.198017         0.158770
 C         3.824177        -0.665219        -1.116588
 C         2.518013         0.064801        -1.387817
 C         3.040815         1.241557        -0.416296
 O         1.860479         1.287513         0.428283
 H        -0.675885        -0.367235         0.335203
 H        -0.066655         0.438540        -1.102166
 H         0.119104        -1.318668        -0.916353
 H         1.638243        -0.882059         1.888261
 H         2.361884        -2.044662         0.657894
 H         5.049307         0.631560         0.454259
 H         4.481711        -0.455340        -1.989084
 H         3.698626        -1.751412        -1.162279
 H         1.728728         0.312997        -2.238581
 H         3.383209         2.207622        -0.657830
