19
Iteration:   506charge 0 multiplicity 1
 C         0.185454        -0.361528        -0.427272
 C         1.598804        -0.058500        -0.111012
 C         2.296761        -1.084540         0.835032
 O         3.543313        -0.586253         1.234185
 C         4.046976         0.146421         0.109331
 C         3.839358        -0.415594        -1.278135
 C         2.550373         0.300509        -1.280050
 C         3.004234         1.259638        -0.224331
 O         1.851834         1.237178         0.576958
 H        -0.184545         0.097523        -1.414967
 H         0.084858        -1.433898        -0.456777
 H        -0.527574        -0.127855         0.480733
 H         1.754652        -1.311747         1.682729
 H         2.471535        -2.093902         0.277508
 H         5.085268         0.423159         0.412272
 H         4.665250         0.001112        -1.876717
 H         3.689178        -1.556318        -1.464809
 H         2.028561         0.518753        -2.114391
 H         3.309755         2.315223        -0.301454
