19
Iteration:  1337charge 0 multiplicity 1
 C         0.095324        -0.414170        -0.260245
 C         1.523759        -0.131922        -0.060265
 C         2.205067        -0.850342         1.059978
 O         3.531233        -0.505425         1.290561
 C         4.095469         0.139479         0.185473
 C         4.026516        -0.620411        -1.215866
 C         2.620788         0.092607        -1.311106
 C         3.085119         1.267240        -0.447233
 O         1.796433         1.384132         0.204007
 H        -0.164230        -1.567132        -0.195560
 H        -0.374191         0.062814         0.615438
 H        -0.311429         0.041807        -1.186391
 H         1.471628        -0.556003         1.919239
 H         2.020995        -1.954888         0.874490
 H         5.081224         0.390151         0.629580
 H         4.717218        -0.226803        -1.992201
 H         3.948833        -1.730661        -1.156294
 H         2.020327         0.220759        -2.327508
 H         3.487640         2.157924        -0.830184
