19
Iteration:  2847
 C         0.111573        -0.367448        -0.236806
 C         1.562034        -0.015291        -0.135243
 C         2.094260        -0.798152         1.085013
 O         3.591894        -0.484158         1.284153
 C         4.160305         0.233333         0.172916
 C         3.996550        -0.716394        -1.165084
 C         2.539340        -0.038161        -1.275722
 C         3.052050         1.181513        -0.463980
 O         1.823144         1.372028         0.187114
 H        -0.299894        -0.182093        -1.241477
 H         0.048776        -1.470574        -0.022648
 H        -0.507924         0.023728         0.522866
 H         1.686341        -0.494455         2.057099
 H         2.049016        -1.982187         0.977501
 H         5.080026         0.729666         0.461259
 H         4.472765        -0.364705        -2.092841
 H         3.998522        -1.773845        -0.989696
 H         2.108883         0.245519        -2.246949
 H         3.494364         1.998201        -1.066373
