19
Iteration:  2248charge 0 multiplicity 1
 C         0.095095        -0.423750        -0.362548
 C         1.613014        -0.046877        -0.067620
 C         2.166242        -0.777282         1.130698
 O         3.519669        -0.297476         1.378900
 C         4.179178         0.163681         0.098759
 C         3.829306        -0.759975        -1.096344
 C         2.559036        -0.019819        -1.357389
 C         3.070990         1.195392        -0.553977
 O         1.885635         1.330439         0.235308
 H        -0.561019        -0.171165         0.502200
 H        -0.257301         0.108184        -1.268975
 H        -0.003940        -1.479231        -0.549582
 H         1.641431        -0.566171         2.162189
 H         2.283865        -1.857477         0.919961
 H         5.236720         0.302394         0.412360
 H         4.515028        -0.558811        -1.843374
 H         3.950090        -1.851472        -0.847548
 H         1.984200         0.152248        -2.293500
 H         3.535054         2.111586        -0.845670
