19
Iteration:  2996charge 0 multiplicity 1
 C         0.105700        -0.424871        -0.262843
 C         1.611490        -0.048844        -0.135443
 C         2.275951        -0.833331         1.083023
 O         3.501440        -0.279193         1.357774
 C         4.051736         0.112542         0.082307
 C         3.860458        -0.793435        -1.106449
 C         2.515452         0.054443        -1.340773
 C         3.166898         1.171255        -0.530563
 O         1.869129         1.389332         0.285934
 H        -0.608371         0.476694        -0.435312
 H        -0.018468        -1.056659        -1.171358
 H        -0.376259        -0.861925         0.585978
 H         1.550850        -0.631341         1.929655
 H         2.298468        -2.031469         1.039597
 H         5.012917         0.370545         0.394538
 H         4.499997        -0.434696        -1.971645
 H         3.943534        -1.877767        -1.080159
 H         2.249335        -0.010912        -2.443334
 H         3.431878         2.138040        -0.940520
