19
Iteration:  1809
 C         0.073452        -0.439330        -0.203773
 C         1.519448        -0.081119        -0.171195
 C         2.145803        -0.759282         1.110731
 O         3.545340        -0.464856         1.305968
 C         4.145660         0.174709         0.168067
 C         3.965329        -0.695692        -1.065107
 C         2.603285        -0.060729        -1.323851
 C         3.114561         1.247144        -0.560142
 O         1.838396         1.420754         0.169187
 H        -0.531775         0.204994         0.350929
 H        -0.428228        -0.360428        -1.190931
 H        -0.103647        -1.524213         0.003542
 H         1.736913        -0.488251         2.034709
 H         1.876966        -1.859180         0.916391
 H         5.174755         0.570625         0.442719
 H         4.557338        -0.293675        -1.816544
 H         4.044694        -1.785994        -0.900050
 H         2.124776         0.141898        -2.387489
 H         3.563150         2.160170        -0.842091
