19
Iteration:  4274
 C         0.156366        -0.295949        -0.134926
 C         1.620525        -0.085223        -0.076467
 C         2.177086        -0.403280         1.229830
 O         3.455685         0.207744         1.468314
 C         4.100200         0.187814         0.106169
 C         3.886105        -1.159980        -0.753660
 C         2.541980        -0.497522        -1.249670
 C         3.081983         0.912137        -0.900387
 O         1.930253         1.353795        -0.274567
 H        -0.351430         0.606723         0.368971
 H        -0.266933        -0.279377        -1.166941
 H        -0.085828        -1.290894         0.388593
 H         1.457354        -0.022252         2.006719
 H         2.161614        -1.466730         1.494264
 H         5.099250         0.555308         0.352262
 H         4.644616        -1.173381        -1.624183
 H         3.777099        -2.038259        -0.124315
 H         1.946662        -0.564266        -2.217566
 H         3.636815         1.496890        -1.571316
