19
Iteration:  2051
 C         0.116643        -0.397664        -0.256577
 C         1.583585        -0.065344        -0.110001
 C         2.161362        -0.753502         1.026173
 O         3.503737        -0.398252         1.319665
 C         4.108393         0.223457         0.172262
 C         3.921892        -0.754260        -1.087170
 C         2.634673        -0.060052        -1.272989
 C         3.085212         1.156140        -0.554501
 O         1.826047         1.411863         0.174016
 H        -0.446219        -0.380122         0.729200
 H        -0.404612         0.312210        -0.878244
 H        -0.123174        -1.430191        -0.537034
 H         1.715932        -0.633938         1.987055
 H         2.216667        -1.825327         1.034397
 H         5.146648         0.626904         0.539959
 H         4.481122        -0.525116        -2.046617
 H         4.114098        -1.905283        -0.717918
 H         2.148874         0.003545        -2.321414
 H         3.495076         2.047179        -1.025041
