19
Iteration:  4581
 C         0.062514        -0.255688        -0.174428
 C         1.547495        -0.021069        -0.042259
 C         2.178035        -0.114729         1.301931
 O         3.543923         0.293618         1.405919
 C         4.121248         0.244937         0.124402
 C         3.877787        -1.256506        -0.473089
 C         2.577743        -0.704577        -1.072066
 C         3.118958         0.738192        -0.986522
 O         1.894552         1.289241        -0.564601
 H        -0.073173        -0.719688        -1.188662
 H        -0.382232        -0.809370         0.643417
 H        -0.509395         0.633504        -0.269319
 H         1.680017         0.471540         2.153515
 H         2.064596        -1.093872         1.657179
 H         5.161397         0.717803         0.065526
 H         4.556669        -1.351726        -1.391742
 H         3.808640        -2.073682         0.241495
 H         2.222098        -1.205047        -2.060433
 H         3.615539         1.242810        -1.796839
