19
Iteration:  1494
 C         0.108357        -0.367180        -0.402097
 C         1.625498        -0.095465        -0.098457
 C         2.143201        -0.874134         1.135211
 O         3.572431        -0.295813         1.366785
 C         4.131422         0.204037         0.101299
 C         3.882389        -0.747052        -1.162242
 C         2.553231         0.022855        -1.300705
 C         3.031807         1.196364        -0.519352
 O         1.860454         1.294261         0.308295
 H        -0.098568         0.037953        -1.315792
 H        -0.121205        -1.452962        -0.275109
 H        -0.369771         0.338821         0.323457
 H         1.534050        -0.830424         1.969810
 H         2.346527        -1.939410         0.819030
 H         5.069557         0.551187         0.560842
 H         4.595196        -0.509631        -1.987316
 H         3.857052        -1.868857        -1.059381
 H         2.066879         0.224308        -2.347371
 H         3.446972         2.091006        -0.854474
