19
Iteration:   270
 C         0.204636        -0.345126        -0.488147
 C         1.579746        -0.080873        -0.018495
 C         2.284309        -1.228454         0.768812
 O         3.569845        -0.626247         1.209362
 C         4.081896         0.186754         0.140169
 C         3.820803        -0.343118        -1.361987
 C         2.469973         0.425607        -1.272917
 C         2.981061         1.271614        -0.154431
 O         1.893345         1.192920         0.681740
 H        -0.570635        -0.545857         0.317012
 H        -0.006499         0.278552        -1.471057
 H         0.338439        -1.320615        -0.882282
 H         1.652377        -1.679270         1.649164
 H         2.405637        -2.077952        -0.001202
 H         5.038439         0.557976         0.419212
 H         4.658722        -0.088265        -2.139749
 H         3.700584        -1.442022        -1.440575
 H         1.975195         0.947428        -2.148022
 H         3.290712         2.347873        -0.221769
