19
Iteration:  1994charge 0 multiplicity 1
 C         0.085004        -0.296941        -0.367006
 C         1.561528        -0.087634        -0.034864
 C         2.213085        -0.849975         1.064753
 O         3.541497        -0.267518         1.340225
 C         4.111130         0.179674         0.109082
 C         3.927482        -0.776926        -1.114274
 C         2.572631        -0.048204        -1.278802
 C         3.100249         1.161103        -0.518174
 O         1.820344         1.306541         0.233388
 H        -0.481706         0.442103         0.154329
 H        -0.070485        -0.235395        -1.437103
 H        -0.050900        -1.382589        -0.069906
 H         1.618312        -0.627109         1.999356
 H         2.283956        -1.919868         0.919589
 H         5.131362         0.448081         0.341353
 H         4.520577        -0.361961        -1.939668
 H         4.194988        -1.901889        -0.843195
 H         1.867051         0.066636        -2.105819
 H         3.306785         2.164946        -0.850334
