19
Iteration:  2645charge 0 multiplicity 1
 C         0.065185        -0.461825        -0.234744
 C         1.605606        -0.073631        -0.129747
 C         2.213718        -0.916121         0.907752
 O         3.443311        -0.260459         1.300192
 C         4.197107         0.107248         0.096511
 C         3.865222        -0.766344        -1.085781
 C         2.575211         0.065116        -1.315043
 C         3.080285         1.267517        -0.430385
 O         1.907262         1.343654         0.293857
 H        -0.360627        -0.731938        -1.144860
 H        -0.130398        -1.158962         0.516046
 H        -0.366042         0.544663         0.029510
 H         1.629679        -0.759534         1.850132
 H         2.430056        -1.934887         0.608980
 H         5.212704         0.521516         0.489526
 H         4.626638        -0.654503        -1.810691
 H         3.609734        -1.805632        -1.032576
 H         2.140951         0.334200        -2.345286
 H         3.334052         2.341560        -0.695120
