19
Iteration:   249
 C         0.207604        -0.468972        -0.474888
 C         1.629120        -0.055310        -0.109779
 C         2.290588        -1.112266         0.763000
 O         3.596546        -0.738967         1.108086
 C         4.059257         0.148932         0.128896
 C         3.817575        -0.344068        -1.285656
 C         2.478539         0.407953        -1.253424
 C         3.020458         1.426252        -0.110170
 O         1.828387         1.172208         0.703320
 H        -0.394695        -0.050229         0.402165
 H         0.036031         0.183533        -1.526396
 H         0.055088        -1.459923        -0.689288
 H         1.544592        -0.966741         1.631197
 H         2.159210        -2.201588         0.477924
 H         5.035442         0.303406         0.467075
 H         4.661999         0.235095        -1.971356
 H         3.811406        -1.422282        -1.531010
 H         1.867571         0.621035        -2.138109
 H         3.351717         2.469895        -0.312345
