19
Iteration:  1106charge 0 multiplicity 1
 C         0.184955        -0.471437        -0.334341
 C         1.511343        -0.006560        -0.101910
 C         2.201566        -0.895938         1.042764
 O         3.639740        -0.643805         1.237584
 C         4.117444         0.184300         0.159156
 C         3.857808        -0.550059        -1.201917
 C         2.573917         0.187575        -1.315120
 C         3.022327         1.270328        -0.395585
 O         1.789923         1.353880         0.362566
 H        -0.550822         0.381648        -0.315178
 H         0.126217        -0.862230        -1.291406
 H        -0.169857        -1.278401         0.326308
 H         1.799296        -0.723975         1.967231
 H         2.090957        -1.992909         0.738886
 H         5.143189         0.455758         0.353781
 H         4.762321        -0.264350        -1.863989
 H         3.748476        -1.702898        -1.113540
 H         2.078236         0.476629        -2.382641
 H         3.427833         2.216506        -0.580702
