19
Iteration:  3840
 C         0.027352        -0.311930        -0.271893
 C         1.515443        -0.125939        -0.081983
 C         2.202551        -0.652769         1.187847
 O         3.567103        -0.026672         1.359751
 C         4.109584         0.176791         0.089339
 C         3.885769        -1.006584        -0.967037
 C         2.583190        -0.250577        -1.323380
 C         3.076371         1.077076        -0.674244
 O         1.941595         1.331751         0.096407
 H        -0.371940        -1.026236         0.485152
 H        -0.495121         0.640013        -0.030520
 H        -0.153646        -0.415561        -1.344658
 H         1.624384        -0.268673         2.040782
 H         2.285144        -1.646801         1.434959
 H         5.094445         0.747084         0.242321
 H         4.610914        -0.780443        -1.668398
 H         3.874514        -2.076752        -0.739398
 H         2.098141        -0.235945        -2.324723
 H         3.457861         2.001928        -1.229492
