19
Iteration:  3997
 C         0.102846        -0.248237        -0.218917
 C         1.573805        -0.071280        -0.089131
 C         2.192738        -0.523166         1.340463
 O         3.538136        -0.189590         1.399371
 C         4.070791         0.237222         0.124127
 C         3.939897        -0.924970        -0.892699
 C         2.585246        -0.385844        -1.319198
 C         3.066268         1.037390        -0.830614
 O         1.894334         1.358113        -0.094789
 H        -0.433098         0.587998        -0.765740
 H        -0.304599        -1.276663        -0.657731
 H        -0.222459        -0.165274         0.889100
 H         1.704375        -0.147661         2.278820
 H         2.018758        -1.639994         1.255306
 H         4.987615         0.783126         0.393660
 H         4.614982        -0.940247        -1.767600
 H         4.049957        -1.953493        -0.601704
 H         1.872516        -0.581349        -2.127817
 H         3.381665         1.877245        -1.475795
