19
Iteration:  2219charge 0 multiplicity 1
 C         0.161789        -0.327158        -0.362510
 C         1.630731        -0.104612        -0.028031
 C         2.151091        -0.740021         1.222535
 O         3.560388        -0.531093         1.302787
 C         4.124040         0.232733         0.129218
 C         3.963324        -0.669926        -1.126307
 C         2.569181        -0.123011        -1.317094
 C         2.976744         1.141799        -0.561939
 O         1.777596         1.439706         0.193511
 H        -0.439626         0.327635         0.248032
 H         0.053219        -0.073207        -1.429860
 H        -0.180991        -1.334250        -0.052728
 H         1.686947        -0.374314         2.086806
 H         2.024201        -1.804055         1.136216
 H         5.144703         0.619802         0.480865
 H         4.653596        -0.384933        -2.077026
 H         4.187239        -1.712931        -0.816921
 H         1.941862         0.008985        -2.217355
 H         3.558489         1.956553        -1.096067
