19
Iteration:  1145
 C        -0.000158        -0.293627        -0.408836
 C         1.604150        -0.124102        -0.026007
 C         2.331273        -1.059621         0.940714
 O         3.520822        -0.337382         1.311650
 C         4.120287         0.205594         0.116855
 C         3.875209        -0.593837        -1.149594
 C         2.522850         0.129247        -1.366310
 C         3.033434         1.254063        -0.422924
 O         1.911190         1.201215         0.474022
 H        -0.568500         0.611478        -0.201206
 H         0.069405        -0.524229        -1.547133
 H        -0.455957        -1.142801         0.168725
 H         1.601097        -1.298917         1.863348
 H         2.536212        -2.030041         0.504603
 H         5.185513         0.431816         0.353774
 H         4.515202        -0.302881        -1.943137
 H         3.815186        -1.664255        -1.175480
 H         2.221755         0.262031        -2.281909
 H         3.287883         2.312011        -0.832107
