19
Iteration:   662charge 0 multiplicity 1
 C         0.174386        -0.350242        -0.456372
 C         1.614379        -0.078520        -0.063289
 C         2.267178        -1.031879         0.938609
 O         3.540667        -0.492056         1.297065
 C         4.040166         0.150078         0.110420
 C         3.872223        -0.585815        -1.270607
 C         2.555745         0.273487        -1.311890
 C         3.038092         1.280001        -0.303565
 O         1.850671         1.223212         0.522868
 H        -0.072147        -1.426630        -0.142488
 H        -0.592244         0.473147        -0.066080
 H        -0.030814        -0.412831        -1.545230
 H         1.836063        -0.976530         1.831692
 H         2.260928        -2.003034         0.524139
 H         4.939577         0.589368         0.459224
 H         4.664717        -0.214450        -2.027797
 H         3.837323        -1.673279        -1.479400
 H         1.950542         0.403975        -2.070479
 H         3.164316         2.339502        -0.634239
