19
Iteration:  1135charge 0 multiplicity 1
 C         0.115970        -0.340859        -0.440058
 C         1.523572        -0.115315        -0.114476
 C         2.275997        -1.065575         0.980393
 O         3.580258        -0.385595         1.269345
 C         4.104477         0.231525         0.132049
 C         3.819506        -0.670683        -1.188813
 C         2.561228         0.144686        -1.248666
 C         3.015983         1.318839        -0.411117
 O         1.883440         1.250453         0.456914
 H        -0.302386         0.637717        -0.198023
 H        -0.127829        -0.561545        -1.528309
 H        -0.237751        -1.165141         0.225684
 H         1.789900        -1.174798         2.071546
 H         2.475528        -1.990915         0.510801
 H         5.168145         0.495895         0.259898
 H         4.608327        -0.405317        -1.816768
 H         3.763462        -1.685237        -1.187164
 H         2.064061         0.255960        -2.212491
 H         3.341236         2.411247        -0.575445
