19
Iteration:  3944charge 0 multiplicity 1
 C         0.120008        -0.378430        -0.223634
 C         1.574945        -0.063659        -0.099007
 C         2.207451        -0.627814         1.236153
 O         3.553482         0.036212         1.428866
 C         4.063266         0.112725         0.121839
 C         3.790422        -1.035714        -0.916001
 C         2.579268        -0.247544        -1.369981
 C         3.097127         1.090150        -0.784661
 O         1.945321         1.375160         0.033076
 H         0.056274        -0.634455        -1.252219
 H        -0.183288        -1.144440         0.481906
 H        -0.610077         0.455165        -0.148955
 H         1.630191        -0.183014         2.067371
 H         2.245622        -1.682117         1.262154
 H         5.065309         0.424005         0.172323
 H         4.532419        -0.961679        -1.751474
 H         3.608131        -2.008890        -0.500706
 H         1.991703        -0.274739        -2.296720
 H         3.461425         1.933095        -1.331672
