19
Iteration:  4454charge 0 multiplicity 1
 C         0.084348        -0.317562        -0.189286
 C         1.546893         0.037018         0.010612
 C         2.079452        -0.235701         1.429958
 O         3.464846         0.232456         1.433007
 C         4.130167         0.239297         0.034082
 C         3.913203        -1.232147        -0.643032
 C         2.550357        -0.622025        -1.163503
 C         3.178084         0.795522        -1.020863
 O         1.957727         1.325260        -0.420730
 H        -0.522410         0.613426        -0.124770
 H        -0.009719        -0.735653        -1.280464
 H        -0.279639        -1.161165         0.477551
 H         1.633268         0.407020         2.108606
 H         2.239974        -1.196861         1.847628
 H         5.137326         0.700648         0.135553
 H         4.515369        -1.412669        -1.474737
 H         4.062067        -2.069246         0.053113
 H         2.050911        -0.906007        -2.057925
 H         3.584600         1.568629        -1.722585
