19
Iteration:   849charge 0 multiplicity 1
 C         0.144230        -0.363826        -0.270119
 C         1.584400        -0.067193        -0.117966
 C         2.186430        -0.955811         0.946862
 O         3.551080        -0.636616         1.242429
 C         4.030255         0.255483         0.235823
 C         3.990734        -0.512021        -1.153769
 C         2.558258         0.091650        -1.352520
 C         3.045013         1.269045        -0.422880
 O         1.817397         1.308379         0.346088
 H        -0.345215         0.242445        -0.973838
 H        -0.103793        -1.433270        -0.340199
 H        -0.226103        -0.141018         0.701934
 H         1.614330        -0.838848         1.846120
 H         2.209260        -2.013052         0.424071
 H         5.061315         0.503204         0.509057
 H         4.639679        -0.074855        -2.073976
 H         4.109508        -1.587636        -1.236937
 H         2.176925         0.330408        -2.392489
 H         3.457492         2.337077        -0.587886
