19
Iteration:  2904
 C         0.103930        -0.326692        -0.297447
 C         1.604076        -0.170275        -0.094796
 C         2.238600        -0.848262         1.065959
 O         3.511019        -0.237302         1.325597
 C         4.104704         0.113704         0.126795
 C         3.901069        -0.730069        -1.153594
 C         2.520643        -0.016693        -1.353209
 C         3.053145         1.220740        -0.491062
 O         1.871636         1.315427         0.340593
 H        -0.134135        -0.335549        -1.346479
 H        -0.406012        -1.237658         0.079939
 H        -0.349238         0.679448        -0.004826
 H         1.685945        -0.870907         2.023384
 H         2.445030        -2.035425         0.802095
 H         5.138474         0.552176         0.344776
 H         4.591843        -0.413409        -1.943505
 H         3.944059        -1.844167        -1.397107
 H         1.944621         0.026941        -2.250066
 H         3.664489         2.011299        -0.917161
