19
Iteration:  2762charge 0 multiplicity 1
 C         0.114501        -0.451473        -0.237308
 C         1.622902        -0.019152        -0.068749
 C         2.292870        -0.940289         0.996091
 O         3.423186        -0.222571         1.427105
 C         4.117298         0.140893         0.130072
 C         3.845412        -0.773263        -1.165130
 C         2.553793         0.008308        -1.364624
 C         3.134167         1.188292        -0.533938
 O         1.868832         1.408785         0.245863
 H        -0.273687         0.532662        -0.618464
 H        -0.043450        -1.217503        -1.100872
 H        -0.484784        -0.609861         0.738058
 H         1.692111        -1.062047         1.896143
 H         2.345505        -1.842096         0.451712
 H         5.197694         0.411425         0.365685
 H         4.664690        -0.808589        -1.948377
 H         3.569960        -1.850064        -0.745797
 H         1.984733         0.166029        -2.259756
 H         3.466716         2.159227        -0.943957
