19
Iteration:  1372charge 0 multiplicity 1
 C         0.157139        -0.405190        -0.472477
 C         1.607330        -0.093773        -0.086770
 C         2.249116        -0.852962         1.017523
 O         3.570260        -0.417732         1.349067
 C         4.096586         0.183099         0.121434
 C         3.835670        -0.725602        -1.081419
 C         2.536670         0.029458        -1.269018
 C         3.014974         1.290685        -0.540617
 O         1.864378         1.386100         0.401111
 H         0.213214        -1.132871        -1.289950
 H        -0.455391        -0.843795         0.368340
 H        -0.241452         0.513531        -0.816065
 H         1.824487        -0.697522         1.966765
 H         2.386507        -1.982805         0.914813
 H         5.151293         0.499997         0.304577
 H         4.421336        -0.776623        -1.984940
 H         3.614950        -1.822414        -0.853966
 H         1.815780         0.129371        -2.254204
 H         3.311015         2.204321        -0.939184
