19
Iteration:  4765charge 0 multiplicity 1
 C         0.021032        -0.354389        -0.160762
 C         1.587701        -0.021656        -0.083946
 C         2.196481         0.003678         1.342127
 O         3.488130         0.524074         1.272688
 C         4.148112         0.139729         0.131929
 C         3.793392        -1.287415        -0.318720
 C         2.511651        -0.797635        -1.023571
 C         3.210668         0.702933        -1.054161
 O         1.973487         1.308126        -0.598376
 H        -0.037264        -1.457144        -0.581420
 H        -0.506206        -0.202563         0.833000
 H        -0.453023         0.399407        -0.838541
 H         1.590080         0.708572         1.882388
 H         2.180095        -0.991380         1.842653
 H         5.214796         0.469957         0.008106
 H         4.477483        -1.670529        -1.093264
 H         3.607231        -2.032976         0.486755
 H         2.099384        -1.579719        -1.787836
 H         3.779861         1.133985        -1.892885
