19
Iteration:  1840
 C         0.116619        -0.349145        -0.270681
 C         1.581022        -0.100281        -0.114704
 C         2.143214        -0.746472         1.199928
 O         3.550896        -0.462465         1.328534
 C         4.134287         0.176984         0.171269
 C         3.971231        -0.639932        -1.108802
 C         2.623117        -0.098882        -1.338921
 C         3.013824         1.198686        -0.596101
 O         1.797054         1.364616         0.162654
 H        -0.361894        -0.112944         0.665555
 H        -0.158413         0.395431        -1.093695
 H        -0.027276        -1.429585        -0.451930
 H         1.726475        -0.401763         2.100775
 H         1.779348        -1.861860         1.002120
 H         5.075894         0.538823         0.514852
 H         4.709160        -0.411095        -1.898804
 H         4.064555        -1.820337        -1.059009
 H         2.050473        -0.022630        -2.283270
 H         3.536692         2.086586        -0.988063
