19
Iteration:  1380
 C         0.182962        -0.425060        -0.473901
 C         1.662910        -0.085408        -0.046263
 C         2.270711        -0.888576         1.090985
 O         3.542538        -0.341546         1.314293
 C         4.105538         0.174652         0.100668
 C         3.783093        -0.767216        -1.098617
 C         2.518781         0.066270        -1.266929
 C         2.983876         1.273788        -0.517975
 O         1.898718         1.356324         0.384924
 H        -0.003568        -0.875812        -1.575982
 H        -0.555430        -0.902140         0.206628
 H        -0.289988         0.546588        -0.784452
 H         1.523290        -0.961732         2.018926
 H         2.268711        -1.891257         0.655623
 H         5.143084         0.533519         0.168251
 H         4.601852        -0.677089        -1.842742
 H         3.732057        -1.815781        -0.746157
 H         1.983091         0.130667        -2.154473
 H         3.409835         2.188262        -0.903909
