19
Iteration:    34
 C         0.059081        -0.273389        -0.349853
 C         1.580461        -0.141996        -0.117168
 C         2.408407        -1.241327         0.613098
 O         3.528500        -0.587358         1.135969
 C         4.061390         0.261169         0.191802
 C         3.910016        -0.369910        -1.273217
 C         2.493113         0.349179        -1.214904
 C         2.974777         1.266720        -0.173101
 O         1.875760         1.115319         0.671545
 H        -0.509891        -0.043397         0.537475
 H        -0.266819         0.481321        -1.136115
 H        -0.218515        -1.335580        -0.687826
 H         1.937668        -1.605004         1.536841
 H         2.722490        -2.112235        -0.051914
 H         5.043500         0.632544         0.464789
 H         4.468003         0.272489        -1.925332
 H         4.118270        -1.391813        -1.546150
 H         2.123740         0.848142        -2.087789
 H         3.227503         2.274344        -0.454907
