19
Iteration:  1899
 C         0.129541        -0.359548        -0.371225
 C         1.687877        -0.085320        -0.079289
 C         2.240863        -0.865389         1.026770
 O         3.503151        -0.203218         1.344712
 C         4.059104         0.190047         0.151271
 C         3.796635        -0.817117        -1.008657
 C         2.524483        -0.028691        -1.316703
 C         3.016023         1.219385        -0.575462
 O         1.918919         1.320400         0.268384
 H        -0.356143        -0.572432         0.624210
 H        -0.360936         0.468675        -0.850233
 H         0.180204        -1.172560        -1.094851
 H         1.688060        -0.777580         1.964856
 H         2.456412        -1.980736         0.842505
 H         5.204307         0.453465         0.369918
 H         4.557050        -0.617569        -1.729996
 H         3.660218        -1.844594        -0.817063
 H         2.051520        -0.130095        -2.368126
 H         3.672430         1.956177        -0.994074
