19
Iteration:    81charge 0 multiplicity 1
 C         0.059146        -0.469476        -0.368244
 C         1.570244        -0.086703        -0.085375
 C         2.233852        -1.054126         0.836731
 O         3.643564        -0.815505         0.969167
 C         4.130927         0.171796         0.198633
 C         3.953305        -0.198529        -1.289336
 C         2.518828         0.402673        -1.246372
 C         3.072342         1.251725        -0.144804
 O         1.729478         1.244218         0.597327
 H        -0.373460        -0.604050         0.623564
 H        -0.377972         0.223450        -0.939819
 H        -0.129692        -1.522765        -0.890614
 H         1.765127        -0.978201         1.875015
 H         2.166777        -2.071872         0.575733
 H         5.157962         0.514035         0.524091
 H         4.645480         0.314937        -1.959401
 H         4.125478        -1.340747        -1.526318
 H         2.015144         0.852681        -2.163628
 H         3.534161         2.219759        -0.319844
