19
Iteration:  4663
 C         0.149664        -0.347828        -0.202072
 C         1.621950        -0.048676        -0.067340
 C         2.157334        -0.060322         1.326719
 O         3.536408         0.448929         1.423946
 C         4.107824         0.272866         0.138871
 C         3.751176        -1.338788        -0.433729
 C         2.542859        -0.713103        -1.050397
 C         3.193636         0.711298        -1.129566
 O         1.885250         1.291103        -0.542645
 H        -0.330825         0.480759         0.301167
 H        -0.141140        -0.209914        -1.233718
 H        -0.196012        -1.265047         0.300215
 H         1.592772         0.617002         1.905495
 H         2.119941        -1.073613         1.719354
 H         5.100430         0.616546         0.034332
 H         4.468144        -1.884127        -1.032535
 H         3.544301        -2.111233         0.402834
 H         1.928082        -1.040652        -1.835552
 H         3.840837         1.036066        -2.004328
