19
Iteration:  4127charge 0 multiplicity 1
 C         0.120640        -0.302487        -0.143608
 C         1.611178        -0.070702        -0.010655
 C         2.112372        -0.501885         1.323901
 O         3.495631        -0.056764         1.382617
 C         4.058474         0.205886         0.069724
 C         3.974301        -1.079135        -0.851037
 C         2.560797        -0.440425        -1.235678
 C         3.132728         1.044549        -0.864312
 O         1.887962         1.431076        -0.258660
 H        -0.225896        -1.231408         0.247214
 H        -0.361255         0.513363         0.413022
 H        -0.161655        -0.229385        -1.137496
 H         1.656977        -0.044937         2.232391
 H         2.083546        -1.559628         1.426432
 H         5.049236         0.649145         0.401675
 H         4.469582        -0.919534        -1.786053
 H         3.974615        -1.957980        -0.186309
 H         1.934800        -0.784050        -2.097458
 H         3.562090         2.003062        -1.302807
