19
Iteration:  2894
 C         0.117364        -0.349399        -0.301974
 C         1.622080        -0.129263        -0.112309
 C         2.337130        -0.871046         0.974497
 O         3.468859        -0.263182         1.407545
 C         4.065642         0.211829         0.147897
 C         3.803212        -0.787772        -1.202364
 C         2.546995         0.025058        -1.306956
 C         3.107996         1.152231        -0.547632
 O         1.872607         1.311517         0.329098
 H        -0.139619        -0.371427        -1.347666
 H        -0.385917        -1.132524         0.308791
 H        -0.319436         0.602814         0.224704
 H         1.606026        -0.832510         1.812843
 H         2.544924        -1.992879         0.673715
 H         5.140726         0.539662         0.377663
 H         4.503946        -0.341669        -1.879284
 H         3.772219        -1.883405        -0.929959
 H         2.129354         0.170604        -2.267542
 H         3.441877         2.137492        -0.895403
