19
Iteration:  2870charge 0 multiplicity 1
 C         0.078345        -0.394192        -0.217209
 C         1.600011        -0.087351        -0.103665
 C         2.238896        -0.912816         1.002082
 O         3.524669        -0.381610         1.293992
 C         4.115276         0.149798         0.118030
 C         3.880318        -0.762089        -0.985105
 C         2.582383         0.077263        -1.377665
 C         3.075371         1.312643        -0.569807
 O         1.835955         1.403636         0.243463
 H        -0.133742        -0.402390        -1.274978
 H        -0.228673        -1.379758         0.249306
 H        -0.592175         0.285348         0.344497
 H         1.776518        -1.070082         2.001283
 H         2.420646        -2.032793         0.516580
 H         5.139084         0.563625         0.317553
 H         4.676805        -0.636916        -1.717097
 H         3.523243        -1.766214        -0.697902
 H         2.102147        -0.049733        -2.338350
 H         3.661482         2.234326        -0.729185
