19
Iteration:   103
 C         0.151432        -0.490623        -0.426229
 C         1.556638        -0.066988        -0.047931
 C         2.183397        -1.044278         0.879959
 O         3.615015        -0.861682         1.039463
 C         4.136646         0.157981         0.108701
 C         3.906109        -0.253844        -1.365494
 C         2.517391         0.376281        -1.207525
 C         3.018486         1.394038        -0.135986
 O         1.811608         1.259667         0.644545
 H        -0.334190        -1.031465         0.416255
 H        -0.355173         0.214476        -0.946959
 H         0.408162        -1.368767        -1.199637
 H         1.689534        -0.937206         1.922638
 H         2.045174        -2.088145         0.606030
 H         5.101211         0.486109         0.581314
 H         4.446561         0.384747        -2.085097
 H         4.124116        -1.314859        -1.793969
 H         1.987827         0.672453        -2.184484
 H         3.382081         2.419816        -0.241810
