19
Iteration:  1071
 C         0.132634        -0.495141        -0.266829
 C         1.506280        -0.076279        -0.069578
 C         2.098890        -0.889727         1.014741
 O         3.568619        -0.615452         1.178045
 C         4.142140         0.160256         0.165131
 C         3.991909        -0.467750        -1.235327
 C         2.591201         0.166338        -1.331953
 C         3.063351         1.230191        -0.332141
 O         1.837071         1.364777         0.348952
 H        -0.529938         0.263012        -0.635353
 H         0.054092        -1.313552        -0.940522
 H        -0.316013        -0.777528         0.710529
 H         1.681036        -0.711048         1.950782
 H         1.978810        -1.982464         0.878688
 H         5.104109         0.516812         0.552058
 H         4.624073         0.051334        -2.022171
 H         4.095238        -1.552272        -1.363360
 H         2.022294         0.506435        -2.399724
 H         3.442917         2.158327        -0.815312
