19
Iteration:  1580
 C         0.107228        -0.362654        -0.193942
 C         1.619494        -0.118324        -0.102540
 C         2.139490        -0.809006         1.097672
 O         3.478736        -0.472059         1.342416
 C         4.110672         0.200841         0.184893
 C         4.035255        -0.648500        -1.113228
 C         2.596767        -0.045843        -1.402677
 C         3.051533         1.200636        -0.592994
 O         1.862756         1.370221         0.162209
 H        -0.383191         0.377326         0.392487
 H        -0.558412        -0.297172        -1.133117
 H        -0.205611        -1.366537         0.234870
 H         1.420601        -0.284196         1.907691
 H         2.002800        -1.889047         1.210182
 H         4.961383         0.698608         0.690008
 H         4.681944        -0.415300        -1.978704
 H         4.084822        -1.776298        -1.010682
 H         2.205847         0.150262        -2.267005
 H         3.368286         2.110035        -0.978294
