19
Iteration:  4080charge 0 multiplicity 1
 C         0.092840        -0.353139        -0.249826
 C         1.603624        -0.045513        -0.002145
 C         2.147306        -0.519435         1.321456
 O         3.527612        -0.009459         1.417769
 C         4.150501         0.159793         0.011545
 C         3.829272        -1.053598        -0.849605
 C         2.600730        -0.363541        -1.275430
 C         3.098745         1.061742        -0.810404
 O         1.889558         1.412521        -0.117789
 H        -0.552469        -0.366486         0.631923
 H        -0.279446         0.377125        -0.898601
 H         0.035749        -1.319150        -0.685858
 H         1.747929        -0.080784         2.196257
 H         2.152984        -1.580958         1.477880
 H         5.241669         0.482598         0.053726
 H         4.508599        -1.076856        -1.687898
 H         3.536724        -1.977904        -0.301150
 H         2.136461        -0.694246        -2.169069
 H         3.486536         1.855393        -1.499744
