19
Iteration:  3579charge 0 multiplicity 1
 C         0.056815        -0.399280        -0.147710
 C         1.590901        -0.067837        -0.143989
 C         2.187273        -0.572146         1.139061
 O         3.537183        -0.046091         1.423763
 C         4.048445         0.154945         0.173851
 C         3.882182        -0.972680        -0.968640
 C         2.589452        -0.252529        -1.296746
 C         3.095679         1.059175        -0.701741
 O         1.923622         1.410685        -0.048563
 H        -0.294991        -1.417920        -0.267100
 H        -0.199370        -0.128513         0.843555
 H        -0.411881         0.323691        -0.833043
 H         1.486858        -0.509819         1.997221
 H         2.245458        -1.743953         1.101656
 H         5.136831         0.505606         0.402191
 H         4.677168        -0.771868        -1.810022
 H         3.765543        -2.062314        -0.711732
 H         2.144046        -0.484124        -2.283780
 H         3.633637         1.763821        -1.425094
