19
Iteration:  4393
 C         0.097203        -0.369398        -0.103141
 C         1.601799        -0.102208        -0.027398
 C         2.163795        -0.295029         1.317915
 O         3.478847         0.186433         1.339913
 C         4.106430         0.242036         0.123014
 C         3.851866        -1.182980        -0.601577
 C         2.563807        -0.506146        -1.180308
 C         3.150940         0.818956        -0.980845
 O         1.932539         1.451206        -0.398904
 H        -0.109170        -0.597863        -1.112103
 H        -0.373885        -1.091265         0.426295
 H        -0.294718         0.615768        -0.092011
 H         1.400749         0.080945         2.103120
 H         2.019809        -1.407353         1.507746
 H         5.107493         0.562956         0.190198
 H         4.703739        -1.489197        -1.348997
 H         3.698316        -1.965924         0.184269
 H         2.121346        -0.902531        -2.162314
 H         3.680093         1.439037        -1.671742
