19
Iteration:  4740
 C         0.102417        -0.248228        -0.148699
 C         1.641237        -0.025701        -0.046049
 C         2.142632        -0.029400         1.421891
 O         3.500375         0.447238         1.431389
 C         4.068530         0.163205         0.074879
 C         3.876823        -1.313249        -0.331987
 C         2.614111        -0.735932        -1.059984
 C         3.092505         0.714894        -1.175611
 O         1.916041         1.237058        -0.673402
 H        -0.189051        -1.239418         0.178958
 H        -0.272842         0.523390         0.481921
 H        -0.269037        -0.008572        -1.169739
 H         1.521046         0.608497         2.018909
 H         2.069369        -1.040101         1.743828
 H         5.038694         0.621758        -0.126247
 H         4.628826        -1.761479        -1.016071
 H         3.563595        -2.068348         0.531746
 H         2.058496        -1.284332        -1.848004
 H         3.696070         1.101571        -2.091326
