19
Iteration:  1148charge 0 multiplicity 1
 C         0.005795        -0.288183        -0.400039
 C         1.608972        -0.123599        -0.021644
 C         2.335349        -1.053298         0.924124
 O         3.507673        -0.339064         1.325093
 C         4.124402         0.196547         0.114054
 C         3.886421        -0.585787        -1.152593
 C         2.525603         0.121917        -1.368195
 C         3.037709         1.245366        -0.423996
 O         1.912548         1.197591         0.473756
 H        -0.643323         0.607424        -0.206550
 H         0.010934        -0.513864        -1.407113
 H        -0.551294        -1.125141         0.103865
 H         1.682303        -1.248051         1.793260
 H         2.566457        -2.028789         0.526610
 H         5.120936         0.468195         0.419619
 H         4.500245        -0.249392        -1.983436
 H         3.878378        -1.626045        -1.097812
 H         2.096762         0.290739        -2.461964
 H         3.290239         2.220018        -0.840949
