19
Iteration:  4961charge 0 multiplicity 1
 C         0.078175        -0.284715        -0.065140
 C         1.537172        -0.015859        -0.071717
 C         2.119375         0.188106         1.341172
 O         3.452343         0.617312         1.314028
 C         4.142733         0.085514         0.180467
 C         3.891329        -1.299389        -0.208970
 C         2.573434        -0.863182        -0.940326
 C         3.168355         0.466411        -1.174980
 O         1.962925         1.277407        -0.858831
 H        -0.105100        -1.355390        -0.288568
 H        -0.283277        -0.098356         0.916975
 H        -0.383286         0.292327        -0.756473
 H         1.509187         0.895282         1.877516
 H         1.848311        -0.790738         1.978884
 H         5.134714         0.450995         0.465703
 H         4.591640        -1.473131        -1.104609
 H         3.991681        -2.267843         0.408968
 H         2.032078        -1.344526        -1.803097
 H         3.857293         0.767824        -2.070487
