19
Iteration:  3088charge 0 multiplicity 1
 C         0.054919        -0.421233        -0.141380
 C         1.537517        -0.032401        -0.066574
 C         2.140240        -0.738688         1.113900
 O         3.490070        -0.442686         1.269015
 C         4.052312         0.117802         0.130989
 C         3.934744        -0.691958        -1.101920
 C         2.675411         0.006056        -1.359046
 C         3.099643         1.224658        -0.548213
 O         1.941516         1.352447         0.128632
 H        -0.584959         0.351320         0.205600
 H        -0.157875        -0.821616        -1.125238
 H        -0.077814        -1.238102         0.648752
 H         1.474801        -0.496296         1.958010
 H         2.038332        -1.886766         1.045349
 H         5.053301         0.642206         0.394141
 H         4.739649        -0.308765        -1.817008
 H         3.986419        -1.811267        -0.918827
 H         2.163929        -0.021814        -2.339987
 H         3.486559         2.153582        -1.079506
