19
Iteration:  4985
 C         0.038315        -0.252208        -0.122183
 C         1.526326        -0.011507        -0.070214
 C         2.139943         0.170583         1.326958
 O         3.514381         0.631345         1.343300
 C         4.161220         0.227287         0.049675
 C         3.829255        -1.374828        -0.135366
 C         2.613258        -0.891394        -0.967181
 C         3.160686         0.546289        -1.138149
 O         1.975940         1.136811        -0.812052
 H        -0.248477        -0.804050        -1.020579
 H        -0.266123        -0.760089         0.805997
 H        -0.437502         0.695567        -0.129312
 H         1.475447         0.854733         1.882365
 H         1.979511        -0.810592         1.931549
 H         5.094777         0.761247         0.124288
 H         4.471314        -2.052802        -0.839748
 H         3.664145        -1.994732         0.786831
 H         2.089230        -1.504782        -1.777408
 H         3.674893         1.064421        -1.952565
