19
Iteration:  1398charge 0 multiplicity 1
 C         0.142923        -0.337165        -0.406931
 C         1.547424        -0.076318        -0.030832
 C         2.254406        -0.939828         1.044414
 O         3.517982        -0.266560         1.345313
 C         4.078546         0.182388         0.130315
 C         3.836226        -0.738980        -1.122590
 C         2.548180         0.026788        -1.326251
 C         3.116465         1.204264        -0.485576
 O         1.863036         1.293592         0.328756
 H         0.208911        -0.707976        -1.436022
 H        -0.274850        -1.100304         0.187774
 H        -0.546539         0.540198        -0.614678
 H         1.908852        -0.896491         2.105699
 H         2.518564        -2.003454         0.952681
 H         5.119885         0.496625         0.245264
 H         4.471221        -0.615645        -2.030196
 H         3.722027        -1.791976        -1.078918
 H         1.985232         0.160085        -2.326628
 H         3.461551         2.324954        -0.737829
