19
Iteration:  4457charge 0 multiplicity 1
 C         0.095363        -0.324367        -0.196547
 C         1.532960         0.033055         0.013469
 C         2.081752        -0.201246         1.421143
 O         3.483637         0.217979         1.420308
 C         4.131503         0.208288         0.047223
 C         3.919317        -1.201993        -0.629084
 C         2.571331        -0.632217        -1.160130
 C         3.167177         0.814061        -1.043437
 O         1.954194         1.323696        -0.415567
 H        -0.507580         0.583832         0.027091
 H        -0.060638        -0.634774        -1.286342
 H        -0.266249        -1.203499         0.477429
 H         1.523937         0.431868         2.169653
 H         2.145901        -1.284174         1.763555
 H         5.074446         0.637725         0.196554
 H         4.590976        -1.350859        -1.461578
 H         3.939344        -2.042371         0.091672
 H         1.950595        -0.992438        -2.067545
 H         3.577446         1.545929        -1.765372
