19
Iteration:   956
 C         0.080992        -0.464814        -0.301965
 C         1.569482        -0.012287        -0.111911
 C         2.214600        -0.853649         0.997876
 O         3.636338        -0.741865         1.195727
 C         4.068912         0.144692         0.192026
 C         4.013080        -0.527183        -1.189631
 C         2.608910         0.214049        -1.315038
 C         3.038601         1.269840        -0.358219
 O         1.718957         1.401971         0.327096
 H        -0.779211        -0.055379        -0.950453
 H         0.031736        -1.561228        -0.420113
 H        -0.238533        -0.277137         0.749232
 H         1.651584        -0.754283         2.036790
 H         2.014884        -1.835494         0.763026
 H         5.066341         0.497075         0.428381
 H         4.649833        -0.094630        -1.854010
 H         4.020812        -1.613299        -1.244699
 H         2.311029         0.323516        -2.427150
 H         3.415731         2.244960        -0.730854
