19
Iteration:  3198charge 0 multiplicity 1
 C         0.070019        -0.389591        -0.177149
 C         1.516259        -0.009539        -0.011403
 C         2.220633        -0.785289         1.153900
 O         3.628814        -0.516330         1.345695
 C         4.092196         0.208402         0.134195
 C         3.904133        -0.773833        -1.022488
 C         2.636891        -0.087967        -1.378487
 C         3.065104         1.164195        -0.593444
 O         1.799735         1.509118         0.020471
 H        -0.402426        -0.645428         0.745169
 H        -0.442386         0.530305        -0.213265
 H        -0.239231        -0.988598        -1.091426
 H         1.668762        -0.655412         2.106304
 H         2.277986        -1.864472         0.735313
 H         5.027203         0.717881         0.564861
 H         4.596839        -0.433292        -1.828728
 H         3.828591        -1.886597        -0.871959
 H         2.245748         0.127780        -2.373356
 H         3.484951         1.985104        -1.223843
