19
Iteration:   657
 C         0.206423        -0.335381        -0.470535
 C         1.638845        -0.070129        -0.075541
 C         2.249324        -1.032052         0.899221
 O         3.532355        -0.465485         1.318348
 C         4.078264         0.174431         0.102517
 C         3.848446        -0.595994        -1.265701
 C         2.544244         0.255744        -1.306833
 C         3.016071         1.286941        -0.299745
 O         1.840578         1.211531         0.557963
 H        -0.131711        -1.295768        -0.038656
 H        -0.372439         0.399153        -0.068958
 H        -0.032183        -0.513437        -1.572055
 H         1.722793        -1.192435         2.019166
 H         2.375900        -2.115477         0.493946
 H         5.099131         0.517083         0.463287
 H         4.492562        -0.183429        -1.998597
 H         3.657556        -1.710952        -1.497152
 H         1.970986         0.385636        -2.420915
 H         3.236067         2.257318        -0.711550
