19
Iteration:  2562charge 0 multiplicity 1
 C         0.057753        -0.323298        -0.405067
 C         1.621289        -0.197309        -0.061814
 C         2.148563        -0.795386         1.193998
 O         3.613430        -0.513301         1.262128
 C         4.105768         0.215390         0.112104
 C         3.901039        -0.663246        -1.146554
 C         2.584060        -0.020847        -1.345433
 C         3.038203         1.246688        -0.561736
 O         1.867018         1.373132         0.373529
 H        -0.177164        -0.029591        -1.452108
 H        -0.201280        -1.400573        -0.219132
 H        -0.392367         0.261905         0.394866
 H         1.512181        -0.426935         1.973857
 H         2.012754        -1.941980         1.230226
 H         4.938111         0.746300         0.377182
 H         4.642056        -0.250830        -1.941455
 H         3.996216        -1.764839        -1.030924
 H         2.007585         0.057475        -2.226770
 H         3.462750         2.130830        -1.025692
