19
Iteration:   713charge 0 multiplicity 1
 C         0.140746        -0.392482        -0.234673
 C         1.569902        -0.075713        -0.054024
 C         2.183847        -0.987117         0.973291
 O         3.545448        -0.691240         1.157249
 C         4.051519         0.202281         0.167155
 C         4.063590        -0.459229        -1.159815
 C         2.616465         0.182051        -1.403078
 C         3.029287         1.249448        -0.332363
 O         1.745387         1.369552         0.351494
 H         0.002964        -1.268334        -0.879470
 H        -0.339727        -0.495184         0.651228
 H        -0.324925         0.517935        -0.683327
 H         1.713049        -0.895222         2.070847
 H         1.993649        -1.999009         0.445219
 H         4.986667         0.525817         0.658531
 H         4.711721        -0.149455        -1.926904
 H         4.134021        -1.581655        -1.237358
 H         2.151125         0.322945        -2.512066
 H         3.414582         2.219859        -0.529688
