19
Iteration:  3919charge 0 multiplicity 1
 C         0.109600        -0.394122        -0.136796
 C         1.581616        -0.111901        -0.090620
 C         2.210140        -0.597881         1.202845
 O         3.467271        -0.078936         1.397968
 C         4.063954         0.167727         0.117336
 C         3.821922        -1.031778        -0.949977
 C         2.614475        -0.199347        -1.310128
 C         3.189671         1.143681        -0.794717
 O         1.906068         1.371150        -0.038185
 H        -0.174103        -1.102174        -0.972901
 H        -0.182855        -0.742380         0.922659
 H        -0.472914         0.485740        -0.363335
 H         1.587527        -0.085304         1.943284
 H         2.134723        -1.659322         1.329068
 H         5.126290         0.530027         0.350886
 H         4.516165        -1.006754        -1.727005
 H         3.643877        -1.985983        -0.521806
 H         2.015538        -0.159536        -2.216968
 H         3.701651         2.030690        -1.292950
