19
Iteration:  3307
 C         0.025187        -0.352575        -0.175098
 C         1.547190        -0.021378        -0.083924
 C         2.124509        -0.744486         1.135149
 O         3.607844        -0.354331         1.316945
 C         4.114237         0.221111         0.173624
 C         3.929414        -0.768819        -0.994221
 C         2.555362        -0.178087        -1.317103
 C         3.100847         1.152970        -0.696045
 O         1.876664         1.387425         0.085142
 H        -0.164222        -1.024456        -1.044948
 H        -0.191689        -0.757714         0.796559
 H        -0.632885         0.603352        -0.306957
 H         1.671907        -0.473823         2.107861
 H         2.208320        -1.822728         1.031370
 H         5.109765         0.736127         0.474973
 H         4.629999        -0.697724        -1.918213
 H         4.067477        -1.874783        -0.840860
 H         2.152106        -0.220062        -2.347707
 H         3.599747         1.989521        -1.225540
