19
Iteration:  4025charge 0 multiplicity 1
 C        -0.010640        -0.340737        -0.119864
 C         1.537165        -0.109138        -0.058963
 C         2.199576        -0.533066         1.247962
 O         3.465125        -0.029073         1.382884
 C         4.182909         0.144125         0.095965
 C         3.934397        -1.029192        -0.884321
 C         2.604760        -0.263738        -1.315902
 C         3.168579         1.049055        -0.809573
 O         1.892096         1.371444        -0.097576
 H        -0.576411         0.568215        -0.251661
 H        -0.228489        -0.820398        -1.015438
 H        -0.349689        -0.852256         0.710765
 H         1.648555        -0.087506         2.077885
 H         2.069430        -1.608747         1.373185
 H         5.205284         0.512948         0.402047
 H         4.694704        -1.000076        -1.680603
 H         4.032473        -2.144717        -0.757053
 H         1.916901        -0.259375        -2.138748
 H         3.436728         1.904636        -1.485752
