19
Iteration:  4057charge 0 multiplicity 1
 C         0.189663        -0.379040        -0.238071
 C         1.644198        -0.011733        -0.048172
 C         2.242999        -0.553095         1.167169
 O         3.524802        -0.053239         1.408416
 C         4.104433         0.191219         0.114887
 C         3.790641        -1.130723        -0.773887
 C         2.441751        -0.305326        -1.268586
 C         3.056089         1.073107        -0.830919
 O         1.897726         1.465394        -0.097035
 H        -0.484443         0.267579         0.325032
 H        -0.039786        -0.248784        -1.261608
 H         0.042308        -1.433124         0.071782
 H         1.780381        -0.257616         2.091659
 H         2.367661        -1.609746         1.221107
 H         5.124436         0.601667         0.164552
 H         4.539393        -1.015356        -1.572294
 H         3.696266        -2.042379        -0.140598
 H         1.912547        -0.477852        -2.185969
 H         3.625380         1.712667        -1.501072
