19
Iteration:   271charge 0 multiplicity 1
 C         0.191621        -0.350592        -0.481889
 C         1.570245        -0.080537        -0.012657
 C         2.288698        -1.233022         0.763275
 O         3.570283        -0.620873         1.211049
 C         4.088849         0.186819         0.136444
 C         3.827727        -0.346088        -1.361698
 C         2.468431         0.426231        -1.273810
 C         2.985171         1.273365        -0.145989
 O         1.892361         1.192452         0.674089
 H        -0.580697        -0.529934         0.311312
 H        -0.019282         0.310335        -1.478023
 H         0.347903        -1.288869        -0.925864
 H         1.668920        -1.668451         1.616295
 H         2.419450        -2.089340         0.010930
 H         5.028804         0.536248         0.439071
 H         4.687798        -0.085631        -2.155574
 H         3.690082        -1.437506        -1.424507
 H         1.976481         0.940100        -2.099375
 H         3.292192         2.334889        -0.246022
