19
Iteration:  3937charge 0 multiplicity 1
 C         0.125479        -0.412386        -0.184071
 C         1.639928        -0.111205        -0.111837
 C         2.140402        -0.617067         1.288705
 O         3.516150         0.031219         1.401789
 C         4.099996         0.115461         0.103837
 C         3.781566        -0.948849        -0.916317
 C         2.529598        -0.180268        -1.437952
 C         3.100968         1.038351        -0.716909
 O         1.986272         1.389221        -0.017610
 H        -0.103219        -0.903480        -1.200264
 H        -0.309478        -1.060189         0.580658
 H        -0.320734         0.589942        -0.110582
 H         1.573735        -0.361335         2.199242
 H         2.227446        -1.801416         1.417051
 H         5.206926         0.349940         0.210986
 H         4.629401        -1.042713        -1.692180
 H         3.448036        -1.953395        -0.421643
 H         2.131387        -0.370522        -2.458980
 H         3.430165         1.923139        -1.311783
