19
Iteration:  3000charge 0 multiplicity 1
 C         0.141022        -0.404507        -0.301190
 C         1.606549        -0.017116        -0.093767
 C         2.250154        -0.843317         1.052007
 O         3.500753        -0.250636         1.332865
 C         4.040903         0.105236         0.106550
 C         3.832464        -0.839160        -1.081610
 C         2.500196         0.059509        -1.347403
 C         3.152540         1.203188        -0.566487
 O         1.876589         1.344763         0.327825
 H        -0.499702         0.442723        -0.367190
 H        -0.009051        -1.012503        -1.230923
 H        -0.345782        -0.916860         0.544513
 H         1.675042        -0.729492         1.971198
 H         2.475425        -1.846146         0.936110
 H         5.077747         0.510285         0.349367
 H         4.543142        -0.655285        -1.942298
 H         4.090402        -1.923887        -1.037195
 H         2.223816        -0.076576        -2.406443
 H         3.406252         2.231696        -0.927126
