19
Iteration:  1731charge 0 multiplicity 1
 C         0.034084        -0.317569        -0.309396
 C         1.551740        -0.078010        -0.088998
 C         2.183332        -0.842986         1.104770
 O         3.570681        -0.349350         1.300244
 C         4.105907         0.228189         0.133686
 C         3.959326        -0.692725        -1.081462
 C         2.627014        -0.111888        -1.320418
 C         3.044722         1.159317        -0.509572
 O         1.859229         1.357901         0.214271
 H        -0.498900         0.024777         0.552412
 H        -0.379724         0.107817        -1.282505
 H        -0.287237        -1.352843        -0.410788
 H         1.758348        -0.637155         2.078186
 H         2.046721        -1.939784         0.878474
 H         5.098548         0.579588         0.371855
 H         4.694088        -0.462332        -1.810143
 H         4.107864        -1.760342        -0.795075
 H         1.969518        -0.184173        -2.328291
 H         3.504613         2.047625        -0.956482
