19
Iteration:  4620charge 0 multiplicity 1
 C         0.084357        -0.391298        -0.115476
 C         1.582923        -0.028899        -0.084099
 C         2.094248        -0.055400         1.319408
 O         3.462513         0.405249         1.404702
 C         4.158845         0.229826         0.105509
 C         3.814854        -1.298053        -0.480968
 C         2.551232        -0.701877        -1.085172
 C         3.197321         0.679052        -1.061205
 O         1.998615         1.365322        -0.523382
 H        -0.401322         0.349802        -0.808142
 H         0.003338        -1.387876        -0.577004
 H        -0.366465        -0.205901         0.920902
 H         1.491229         0.628178         1.850165
 H         2.071197        -1.164709         1.705905
 H         5.098883         0.693639         0.282352
 H         4.405046        -1.624854        -1.317872
 H         3.828534        -2.194121         0.214084
 H         2.074141        -1.171165        -1.949467
 H         3.579961         1.259628        -1.948809
