19
Iteration:   839charge 0 multiplicity 1
 C         0.100141        -0.398997        -0.225771
 C         1.584628        -0.061921        -0.148605
 C         2.171036        -0.998871         0.971145
 O         3.521152        -0.638856         1.209038
 C         4.096434         0.217673         0.195117
 C         3.974192        -0.519671        -1.183252
 C         2.583056         0.169411        -1.320363
 C         3.072995         1.279371        -0.401585
 O         1.833013         1.323116         0.313544
 H        -0.439171        -0.050124        -1.073325
 H         0.088966        -1.530172        -0.281761
 H        -0.361118         0.042929         0.655786
 H         1.567696        -0.755074         1.775220
 H         1.938208        -2.132222         0.881920
 H         4.947604         0.632046         0.765310
 H         4.645421         0.263019        -1.825424
 H         4.297328        -1.567421        -1.242133
 H         2.130475         0.276534        -2.247901
 H         3.490846         2.307988        -0.738514
