19
Iteration:  4965charge 0 multiplicity 1
 C         0.038425        -0.292448        -0.066459
 C         1.563199        -0.031753        -0.094320
 C         2.124106         0.179811         1.346907
 O         3.481496         0.621193         1.296363
 C         4.087861         0.093953         0.188160
 C         3.892538        -1.312021        -0.213137
 C         2.593386        -0.884578        -0.916253
 C         3.209387         0.477008        -1.156923
 O         1.929746         1.293176        -0.859346
 H        -0.088403        -1.288297        -0.522725
 H        -0.295814        -0.123333         1.009861
 H        -0.525453         0.490110        -0.712183
 H         1.587394         0.964501         1.944676
 H         1.916455        -0.755330         1.858018
 H         5.146846         0.353471         0.339546
 H         4.712179        -1.509507        -0.993474
 H         3.967410        -2.179179         0.420394
 H         2.078912        -1.377532        -1.781197
 H         3.777507         0.748668        -1.976834
