19
Iteration:   684
 C         0.093736        -0.417753        -0.400469
 C         1.557528        -0.105877        -0.110007
 C         2.162752        -1.003607         0.990274
 O         3.602913        -0.651153         1.201292
 C         4.176115         0.217263         0.137745
 C         3.908559        -0.449160        -1.158632
 C         2.547222         0.204858        -1.325097
 C         3.083271         1.279837        -0.295278
 O         1.804478         1.330695         0.426548
 H        -0.138949        -1.541906        -0.376662
 H        -0.503792         0.195146         0.447801
 H        -0.334707        -0.075095        -1.361917
 H         1.759627        -0.875470         1.905405
 H         2.104651        -2.023482         0.686355
 H         5.137510         0.428525         0.544315
 H         4.483858        -0.067703        -2.093955
 H         3.949823        -1.555327        -1.264077
 H         2.231529         0.310205        -2.255573
 H         3.406944         2.307948        -0.659570
