19
Iteration:  2717charge 0 multiplicity 1
 C         0.034977        -0.318202        -0.283185
 C         1.504446        -0.118206        -0.014977
 C         2.158653        -0.776408         1.131292
 O         3.598812        -0.522944         1.240365
 C         4.150605         0.263890         0.151467
 C         4.029956        -0.689575        -1.155075
 C         2.581153        -0.000810        -1.293208
 C         3.006436         1.205302        -0.495912
 O         1.835645         1.345230         0.194254
 H        -0.235644         0.034311        -1.346761
 H         0.024161        -1.493647        -0.228058
 H        -0.536549         0.275259         0.450912
 H         1.605397        -0.565628         2.050442
 H         2.173170        -1.832557         0.875910
 H         5.085442         0.669617         0.508704
 H         4.654589        -0.695273        -2.113302
 H         4.130981        -1.816895        -0.824319
 H         2.055174         0.072425        -2.221516
 H         3.460373         2.090853        -0.918254
