19
Iteration:  2113charge 0 multiplicity 1
 C         0.127735        -0.396789        -0.392731
 C         1.495991        -0.059410        -0.096575
 C         2.216757        -0.758131         1.177264
 O         3.577882        -0.366775         1.298389
 C         4.163626         0.184291         0.156958
 C         3.863433        -0.749683        -1.065148
 C         2.558213        -0.092554        -1.312184
 C         3.027479         1.211551        -0.550604
 O         1.865276         1.368889         0.240693
 H        -0.376400        -0.513692         0.547378
 H        -0.339482         0.455147        -0.883492
 H         0.164858        -1.240403        -1.174219
 H         1.553442        -0.404625         2.073184
 H         2.065333        -1.871359         1.093935
 H         5.126839         0.579726         0.263848
 H         4.603826        -0.579433        -1.817790
 H         3.965607        -1.753393        -0.729299
 H         2.168684        -0.183009        -2.311523
 H         3.501062         2.096593        -1.015728
