19
Iteration:  2268charge 0 multiplicity 1
 C         0.087756        -0.424801        -0.313545
 C         1.584427        -0.015688        -0.129192
 C         2.244823        -0.863620         0.948181
 O         3.501460        -0.199375         1.322011
 C         4.083895         0.170598         0.143052
 C         3.863441        -0.910465        -1.008220
 C         2.581852        -0.003401        -1.301527
 C         3.110347         1.212692        -0.497374
 O         1.871637         1.395240         0.273749
 H        -0.333132        -0.644921         0.724161
 H        -0.368166         0.416305        -0.873402
 H         0.018886        -1.494724        -0.805235
 H         1.708593        -0.664872         1.958413
 H         2.566844        -1.941189         0.762507
 H         5.062222         0.567246         0.288634
 H         4.490362        -0.933953        -1.838363
 H         3.585139        -1.978554        -0.893253
 H         2.102648         0.169511        -2.271568
 H         3.481476         2.088159        -1.004396
