19
Iteration:  4842
 C        -0.031549        -0.206681        -0.081557
 C         1.547079        -0.048316        -0.052314
 C         2.160102         0.036919         1.329381
 O         3.490328         0.440373         1.339644
 C         4.119248         0.225410         0.121052
 C         3.899033        -1.268603        -0.296665
 C         2.603833        -0.803060        -0.998395
 C         3.191492         0.583440        -1.088621
 O         1.948826         1.236313        -0.779655
 H        -0.568488         0.627021        -0.713433
 H        -0.276951        -1.231261        -0.545373
 H        -0.285648        -0.174562         0.986391
 H         1.517860         0.763204         1.783673
 H         2.083062        -0.801047         1.976226
 H         5.203182         0.401559         0.143894
 H         4.666381        -1.719021        -0.998432
 H         3.753209        -1.861136         0.688935
 H         2.214793        -1.398670        -1.925346
 H         3.760916         1.044900        -1.914329
