19
Iteration:  1856charge 0 multiplicity 1
 C         0.101101        -0.320928        -0.365841
 C         1.546602        -0.097861        -0.082162
 C         2.238840        -0.811265         1.106743
 O         3.605062        -0.391995         1.354209
 C         4.074864         0.193583         0.150791
 C         3.949532        -0.755110        -1.049436
 C         2.515688        -0.072908        -1.267164
 C         3.071665         1.197385        -0.562506
 O         1.848787         1.358733         0.179203
 H        -0.682510        -0.232698         0.466358
 H        -0.403110         0.419853        -0.928935
 H        -0.140814        -1.229530        -0.915376
 H         1.537635        -0.478583         1.976819
 H         2.284749        -1.871149         1.163080
 H         5.154804         0.669705         0.293056
 H         4.506367        -0.300894        -1.869629
 H         4.107822        -1.766820        -0.878848
 H         2.075928        -0.157076        -2.305482
 H         3.286296         2.170296        -1.024955
