19
Iteration:  4801
 C         0.170768        -0.324032        -0.156034
 C         1.606161        -0.018936        -0.019415
 C         2.147595         0.047917         1.389790
 O         3.448154         0.484514         1.318346
 C         4.117489         0.121374         0.094751
 C         3.790866        -1.258239        -0.359944
 C         2.545268        -0.762208        -0.995742
 C         3.179398         0.590537        -1.098130
 O         1.958814         1.302715        -0.681324
 H        -0.092058        -0.682863        -1.188877
 H        -0.096792        -1.195007         0.541856
 H        -0.487071         0.576065        -0.034457
 H         1.673387         0.924374         1.956160
 H         1.965640        -0.884427         2.031400
 H         5.009890         0.697265         0.208226
 H         4.469549        -1.766856        -1.023089
 H         3.606418        -1.951395         0.365528
 H         1.936359        -1.277076        -1.764479
 H         3.779948         0.918296        -1.908076
