19
Iteration:  3825charge 0 multiplicity 1
 C         0.046505        -0.330234        -0.233478
 C         1.586207        -0.052522        -0.084724
 C         2.192196        -0.711237         1.248622
 O         3.537035        -0.081359         1.396355
 C         4.184193         0.194735         0.093091
 C         3.827664        -0.902030        -0.916463
 C         2.554541        -0.190493        -1.299064
 C         3.158233         1.116634        -0.751341
 O         1.888002         1.335004         0.004780
 H        -0.279059        -1.158098         0.461539
 H        -0.483136         0.601103        -0.046509
 H        -0.402339        -0.870142        -1.159763
 H         1.553678        -0.526988         2.167918
 H         2.183374        -1.814663         0.873905
 H         5.206995         0.289151         0.254060
 H         4.441033        -1.014535        -1.950230
 H         3.692014        -1.904644        -0.364748
 H         2.129849        -0.365058        -2.314713
 H         3.531449         1.911863        -1.349731
