19
Iteration:  3067charge 0 multiplicity 1
 C         0.097383        -0.349317        -0.194685
 C         1.542714        -0.131588        -0.116296
 C         2.150548        -0.790325         1.158980
 O         3.513488        -0.418494         1.352874
 C         4.161176         0.162138         0.151673
 C         3.988283        -0.676127        -1.217360
 C         2.576274        -0.067557        -1.341631
 C         3.096029         1.171198        -0.586819
 O         1.816681         1.383704         0.180534
 H        -0.320386         0.609940         0.015591
 H        -0.196078        -0.635794        -1.185910
 H        -0.402258        -0.946630         0.633845
 H         1.560561        -0.396657         1.997619
 H         1.902389        -1.839976         1.188983
 H         5.142451         0.552786         0.671013
 H         4.577088        -0.265285        -2.080789
 H         4.315859        -1.780611        -1.067398
 H         2.051830         0.094377        -2.284631
 H         3.699121         2.027672        -0.999861
