19
Iteration:  3842
 C         0.034191        -0.309560        -0.271314
 C         1.518913        -0.123682        -0.078646
 C         2.229301        -0.631376         1.187415
 O         3.563901        -0.030933         1.350879
 C         4.093544         0.162218         0.098664
 C         3.903823        -1.011876        -0.977978
 C         2.577167        -0.261273        -1.329677
 C         3.067167         1.086471        -0.667832
 O         1.937254         1.329212         0.104283
 H        -0.400512        -1.032480         0.405901
 H        -0.487745         0.657951        -0.048388
 H        -0.138575        -0.380864        -1.297603
 H         1.558022        -0.255889         1.967480
 H         2.250920        -1.680727         1.456916
 H         5.065107         0.757175         0.283210
 H         4.620950        -0.746231        -1.662247
 H         3.873985        -2.040640        -0.693101
 H         2.036834        -0.255423        -2.275041
 H         3.481282         1.965849        -1.278911
