19
Iteration:  4091
 C        -0.006881        -0.367034        -0.244376
 C         1.530111        -0.100780        -0.055666
 C         2.194624        -0.453813         1.336764
 O         3.568502         0.000795         1.405678
 C         4.106515         0.208441         0.073061
 C         3.879826        -1.056426        -0.872420
 C         2.502045        -0.367120        -1.288410
 C         3.148878         1.002206        -0.781401
 O         1.963234         1.386854        -0.122817
 H        -0.514497        -0.617146         0.691745
 H        -0.419886         0.510205        -0.671132
 H        -0.179641        -1.107562        -0.988182
 H         1.565866         0.093933         2.008404
 H         2.133454        -1.519367         1.550931
 H         5.146461         0.656021         0.205958
 H         4.603562        -1.082702        -1.681516
 H         4.114581        -2.077701        -0.452696
 H         2.045394        -0.560609        -2.225413
 H         3.701614         1.816619        -1.310566
