19
Iteration:  4711
 C         0.046117        -0.258982        -0.127060
 C         1.550113        -0.013445        -0.076558
 C         2.104731        -0.021656         1.319793
 O         3.470253         0.403231         1.343787
 C         4.143253         0.195632         0.095970
 C         3.953790        -1.232851        -0.381450
 C         2.526329        -0.727216        -0.963075
 C         3.163316         0.604376        -1.041733
 O         1.981270         1.265627        -0.627554
 H        -0.436076        -0.669106         0.875514
 H        -0.492432         0.723746        -0.253781
 H        -0.289427        -1.017326        -0.873043
 H         1.483822         0.680132         1.908132
 H         1.983459        -1.128201         1.644571
 H         5.159104         0.639393        -0.013206
 H         4.561852        -1.488874        -1.254039
 H         4.148049        -2.060843         0.236821
 H         2.185318        -1.100004        -2.000164
 H         3.587248         0.877608        -1.993767
