19
Iteration:   996charge 0 multiplicity 1
 C         0.087636        -0.334291        -0.362786
 C         1.554029        -0.115415        -0.124047
 C         2.244607        -1.044796         0.925107
 O         3.534986        -0.463568         1.278354
 C         4.122320         0.223500         0.132573
 C         3.890399        -0.516278        -1.179459
 C         2.566012         0.120153        -1.314844
 C         3.023614         1.261941        -0.420354
 O         1.874865         1.249060         0.488250
 H        -0.240034        -0.052442        -1.429334
 H        -0.286591        -1.305048        -0.097340
 H        -0.400344         0.345049         0.398097
 H         1.722634        -1.175514         1.855444
 H         2.420668        -2.113467         0.434021
 H         5.090924         0.564392         0.458982
 H         4.691141        -0.120012        -1.974032
 H         4.061323        -1.674906        -1.325065
 H         2.013524         0.308193        -2.147746
 H         3.467598         2.202819        -0.630693
