19
Iteration:  2156charge 0 multiplicity 1
 C         0.177665        -0.323372        -0.232238
 C         1.675786        -0.047700        -0.100645
 C         2.262192        -0.870855         0.998300
 O         3.418392        -0.243025         1.370007
 C         4.067651         0.162878         0.162076
 C         3.848022        -0.780441        -1.028620
 C         2.592375        -0.071274        -1.366447
 C         3.103675         1.193557        -0.545379
 O         1.830878         1.349936         0.213521
 H        -0.321776         0.179324         0.604500
 H        -0.381920        -0.153223        -1.192568
 H        -0.024772        -1.520647        -0.300375
 H         1.522262        -0.844969         1.904260
 H         2.512446        -1.962115         0.561001
 H         5.104177         0.330365         0.362900
 H         4.454069        -0.511392        -1.901812
 H         3.852130        -1.825486        -1.016795
 H         2.102455        -0.028553        -2.332347
 H         3.425793         2.170155        -0.991315
