19
Iteration:  3452charge 0 multiplicity 1
 C         0.035099        -0.383293        -0.154992
 C         1.560023        -0.013221        -0.120501
 C         2.210176        -0.715957         1.156937
 O         3.566749        -0.244752         1.366071
 C         4.115961         0.187199         0.138118
 C         3.875580        -0.911348        -0.911497
 C         2.599214        -0.194331        -1.281123
 C         3.108662         1.134638        -0.745772
 O         1.840609         1.474723        -0.036342
 H        -0.373869        -0.091505         0.862467
 H        -0.459057         0.045588        -1.123932
 H         0.045113        -1.480831        -0.172103
 H         1.611155        -0.282728         1.978272
 H         2.192006        -1.805991         1.026644
 H         5.118541         0.524217         0.409967
 H         4.685158        -1.063229        -1.635919
 H         3.774049        -1.931114        -0.364630
 H         2.258609        -0.120273        -2.302525
 H         3.536886         1.981869        -1.265325
