19
Iteration:  2001charge 0 multiplicity 1
 C         0.123254        -0.331724        -0.366862
 C         1.558832        -0.084922        -0.096846
 C         2.232071        -0.859672         1.027409
 O         3.525009        -0.231849         1.366635
 C         4.141192         0.218053         0.149059
 C         3.872128        -0.800557        -1.128212
 C         2.511452        -0.066469        -1.276528
 C         3.090488         1.164320        -0.488357
 O         1.862521         1.310416         0.244012
 H        -0.492374         0.417734         0.169855
 H        -0.153135        -0.085060        -1.438534
 H        -0.213134        -1.320977        -0.044337
 H         1.772293        -0.924359         2.138780
 H         2.418986        -1.950917         0.927757
 H         5.118756         0.621966         0.352031
 H         4.712491        -0.543489        -1.802149
 H         3.799148        -1.813645        -1.021064
 H         2.031774         0.042226        -2.234443
 H         3.414180         2.123052        -0.977976
