19
Iteration:  3228charge 0 multiplicity 1
 C         0.130240        -0.439382        -0.219058
 C         1.576718        -0.021964        -0.074049
 C         2.161856        -0.760125         1.108107
 O         3.488230        -0.292616         1.369272
 C         4.144987         0.152017         0.045634
 C         3.824746        -0.874189        -1.076962
 C         2.610004        -0.032833        -1.319284
 C         3.114319         1.243021        -0.581622
 O         1.898666         1.363842         0.160774
 H         0.028339        -1.210443         0.554186
 H        -0.480799         0.471796         0.098543
 H        -0.237082        -0.757287        -1.263350
 H         1.555652        -0.681326         2.044380
 H         2.147139        -1.839639         1.047912
 H         5.159273         0.514869         0.389226
 H         4.530802        -0.560392        -1.899086
 H         3.689252        -1.901580        -0.821749
 H         2.212822         0.134885        -2.401047
 H         3.414985         2.184305        -1.151608
