19
Iteration:  4219
 C         0.116659        -0.349778        -0.222879
 C         1.525041         0.013975        -0.042759
 C         2.193343        -0.373725         1.328696
 O         3.568053        -0.003828         1.358934
 C         4.102392         0.187550         0.123640
 C         3.880605        -1.110090        -0.711291
 C         2.564245        -0.496567        -1.207657
 C         3.119662         0.948768        -0.852114
 O         1.852233         1.432526        -0.267457
 H        -0.279382         0.124800        -1.159945
 H         0.033509        -1.432859        -0.226336
 H        -0.528459         0.107756         0.625612
 H         1.666234         0.250556         2.052184
 H         2.035434        -1.421143         1.484972
 H         5.064585         0.587589         0.110311
 H         4.457725        -0.969736        -1.633182
 H         3.954908        -2.084720        -0.278566
 H         2.162261        -0.716998        -2.230197
 H         3.649556         1.555124        -1.535603
