19
Iteration:  1882charge 0 multiplicity 1
 C         0.175596        -0.336470        -0.424458
 C         1.573576        -0.072422         0.009526
 C         2.267129        -0.886328         1.085430
 O         3.484661        -0.208223         1.345059
 C         4.142401         0.233971         0.103014
 C         3.853206        -0.892347        -1.050265
 C         2.560746        -0.051422        -1.340883
 C         3.057554         1.221381        -0.578188
 O         1.875388         1.348198         0.301850
 H        -0.600273        -0.485661         0.357598
 H        -0.403441         0.588607        -0.768388
 H        -0.059359        -1.152800        -1.116295
 H         1.580335        -1.057994         2.045478
 H         2.441948        -1.900861         0.741068
 H         5.133449         0.458073         0.285912
 H         4.598881        -0.828310        -1.937507
 H         3.798906        -1.951305        -0.581466
 H         2.069897        -0.059032        -2.257331
 H         3.083806         2.251186        -1.090190
