19
Iteration:  4316charge 0 multiplicity 1
 C         0.096745        -0.343284        -0.234895
 C         1.555007        -0.030963        -0.061691
 C         2.225455        -0.363671         1.266674
 O         3.548237         0.145723         1.425892
 C         4.143709         0.260654         0.089378
 C         3.855434        -1.186879        -0.645973
 C         2.499473        -0.525988        -1.160549
 C         3.083029         0.875919        -0.920420
 O         1.937175         1.416490        -0.255114
 H        -0.448540        -0.734811         0.581092
 H        -0.337843         0.545309        -0.553752
 H         0.030428        -1.012019        -1.084828
 H         1.471026         0.194878         1.909479
 H         2.154525        -1.455711         1.399023
 H         5.087238         0.696771         0.008529
 H         4.487736        -1.448633        -1.596469
 H         3.835976        -2.002816         0.136668
 H         2.074621        -0.868867        -2.162553
 H         3.340950         1.567817        -1.696371
