19
Iteration:  3106charge 0 multiplicity 1
 C         0.084107        -0.426277        -0.211865
 C         1.600443         0.007114        -0.098366
 C         2.177194        -0.809548         1.021826
 O         3.568227        -0.403631         1.323038
 C         4.167999         0.218144         0.172939
 C         3.960751        -0.875123        -1.064575
 C         2.497082        -0.014614        -1.366058
 C         3.109548         1.192538        -0.546251
 O         1.794895         1.468174         0.217910
 H        -0.468660         0.494711         0.095429
 H        -0.267893        -0.705851        -1.265187
 H        -0.035066        -1.313512         0.362229
 H         1.580374        -0.573450         1.935430
 H         2.217745        -1.904099         0.808736
 H         5.174308         0.493677         0.292301
 H         4.582212        -0.744514        -1.938393
 H         3.705420        -1.840653        -0.781238
 H         2.061900         0.097801        -2.407220
 H         3.439287         2.151043        -0.974253
