19
Iteration:  4290
 C         0.061024        -0.317243        -0.173301
 C         1.548715        -0.055117        -0.038965
 C         2.197395        -0.455142         1.393077
 O         3.444010         0.233967         1.379054
 C         4.137346         0.190702         0.142343
 C         3.835833        -1.191742        -0.738479
 C         2.621121        -0.468932        -1.222748
 C         3.201346         0.942710        -0.949390
 O         1.910684         1.377035        -0.287622
 H        -0.452677         0.053411         0.717239
 H        -0.285500         0.166904        -1.149193
 H        -0.184015        -1.366946        -0.266853
 H         1.585173        -0.063681         2.189636
 H         2.356867        -1.546759         1.319364
 H         5.226690         0.559648         0.101391
 H         4.482964        -1.291001        -1.559104
 H         3.725749        -2.188478        -0.262075
 H         2.191055        -0.882434        -2.109179
 H         3.409684         1.750018        -1.734340
