19
Iteration:  4411
 C         0.097342        -0.270816        -0.211650
 C         1.571819        -0.037910        -0.088286
 C         2.201952        -0.355616         1.355639
 O         3.515999         0.279480         1.400476
 C         4.109021         0.199257         0.080311
 C         3.838624        -1.213755        -0.535745
 C         2.565124        -0.572083        -1.197544
 C         3.110297         0.895544        -0.998064
 O         1.932186         1.332613        -0.366629
 H        -0.379123        -0.017163        -1.195057
 H         0.036304        -1.441977         0.067651
 H        -0.533502         0.204526         0.653581
 H         1.619784         0.186835         2.049312
 H         2.122001        -1.485090         1.467885
 H         5.107640         0.643373         0.242407
 H         4.474831        -1.486289        -1.299955
 H         3.749625        -2.015991         0.209923
 H         2.139909        -0.970490        -2.127959
 H         3.528600         1.562943        -1.812981
