19
Iteration:  3556charge 0 multiplicity 1
 C         0.083985        -0.336377        -0.071143
 C         1.585980         0.034385        -0.048487
 C         2.154163        -0.692738         1.179571
 O         3.517907        -0.213835         1.392937
 C         4.132236         0.180818         0.087983
 C         3.914376        -0.934602        -0.877549
 C         2.570387        -0.211184        -1.300800
 C         3.121307         1.102590        -0.750474
 O         1.840480         1.442633        -0.177859
 H         0.069073        -1.397917         0.166420
 H        -0.508986         0.083056         0.675215
 H        -0.262899        -0.252372        -1.141424
 H         1.461983        -0.548312         2.029194
 H         2.050879        -1.855862         1.094758
 H         5.107613         0.601036         0.495322
 H         4.718363        -0.783518        -1.722865
 H         4.048257        -1.928264        -0.319710
 H         2.169046        -0.507435        -2.284583
 H         3.624814         1.917034        -1.403122
