19
Iteration:  3626charge 0 multiplicity 1
 C         0.106439        -0.338053        -0.405177
 C         1.539336        -0.087610        -0.003049
 C         2.247688        -0.602579         1.209843
 O         3.635511        -0.134846         1.422750
 C         4.115653         0.249624         0.013839
 C         3.887589        -1.012934        -0.834927
 C         2.476958        -0.381218        -1.234278
 C         3.027077         1.109652        -0.775277
 O         1.879868         1.491927         0.073080
 H         0.093964        -1.175791        -1.120081
 H        -0.659213        -0.624157         0.413460
 H        -0.073887         0.618779        -0.853430
 H         1.652426        -0.352796         2.121403
 H         2.047558        -1.773212         1.373160
 H         5.152301         0.612570        -0.095831
 H         4.358169        -0.944700        -1.820733
 H         3.970900        -1.974655        -0.412277
 H         1.926526        -0.562655        -2.169522
 H         3.444166         1.922615        -1.346712
