19
Iteration:  3062
 C         0.080930        -0.312099        -0.219638
 C         1.523574        -0.116019        -0.060440
 C         2.193094        -0.755468         1.126423
 O         3.533405        -0.423419         1.369349
 C         4.164177         0.128729         0.143736
 C         3.981181        -0.677158        -1.223848
 C         2.609363        -0.088464        -1.338759
 C         3.049870         1.161818        -0.532930
 O         1.812853         1.369117         0.179904
 H        -0.308950         0.741287        -0.086673
 H        -0.077111        -0.642079        -1.292888
 H        -0.325213        -0.967584         0.519062
 H         1.482184        -0.422454         1.924615
 H         2.064552        -1.939164         1.116008
 H         5.040594         0.647203         0.416781
 H         4.490297        -0.217418        -2.081116
 H         4.166866        -1.662892        -0.913512
 H         2.143989        -0.074546        -2.371352
 H         3.519759         1.994139        -1.078750
