19
Iteration:  3424
 C         0.065084        -0.286632        -0.175423
 C         1.597554        -0.052352        -0.090882
 C         2.210567        -0.639728         1.212112
 O         3.478944        -0.205196         1.383044
 C         4.081478         0.143556         0.181109
 C         3.926032        -0.857962        -1.091828
 C         2.599058        -0.259458        -1.287338
 C         3.096037         1.146953        -0.720931
 O         1.869214         1.326282         0.004350
 H        -0.385976         0.547210         0.282110
 H        -0.221080        -0.665320        -1.127473
 H        -0.211860        -1.188113         0.408909
 H         1.471866        -0.266771         1.959628
 H         2.100379        -1.767779         1.289672
 H         5.096064         0.454045         0.517618
 H         4.693734        -0.646744        -1.852230
 H         4.116571        -1.916346        -0.907778
 H         2.210435        -0.245668        -2.337978
 H         3.610962         2.119186        -1.087224
