19
Iteration:  3598charge 0 multiplicity 1
 C         0.104316        -0.311106        -0.236819
 C         1.543900        -0.084593        -0.023390
 C         2.223482        -0.657100         1.290780
 O         3.460991         0.004147         1.374789
 C         4.122509         0.177100         0.068541
 C         3.899249        -0.999204        -0.911803
 C         2.562647        -0.270491        -1.381422
 C         3.112272         1.101352        -0.766618
 O         1.903105         1.322946         0.035063
 H         0.033268        -1.222864        -0.846917
 H        -0.436227        -0.480890         0.668015
 H        -0.270692         0.508875        -0.920238
 H         1.706436        -0.178820         2.142705
 H         2.245960        -1.741472         1.396476
 H         5.185175         0.433993         0.119860
 H         4.570533        -1.096080        -1.808819
 H         3.789450        -2.097158        -0.531539
 H         2.031587        -0.199532        -2.342061
 H         3.461232         2.068637        -1.237097
