19
Iteration:  1125
 C         0.166746        -0.372525        -0.425241
 C         1.638928        -0.105003        -0.076290
 C         2.279586        -0.985240         0.945080
 O         3.595639        -0.470292         1.262570
 C         4.087778         0.197752         0.111570
 C         3.838635        -0.670796        -1.179985
 C         2.532640         0.169042        -1.293070
 C         3.029151         1.306815        -0.337116
 O         1.805826         1.302503         0.428973
 H        -0.460931         0.494803        -0.189928
 H        -0.043482        -0.632797        -1.465619
 H        -0.391263        -1.126821         0.178843
 H         1.707737        -0.958126         1.970875
 H         2.335249        -2.021352         0.705553
 H         5.039339         0.611597         0.433305
 H         4.444594        -0.432087        -2.027563
 H         3.783750        -1.668671        -0.974632
 H         1.838371         0.315319        -2.252004
 H         3.409563         2.308235        -0.702670
