19
Iteration:  1733
 C         0.039781        -0.313671        -0.320329
 C         1.528727        -0.076510        -0.088359
 C         2.193750        -0.844205         1.098020
 O         3.585296        -0.333369         1.307706
 C         4.098678         0.221381         0.123309
 C         3.957165        -0.699933        -1.075675
 C         2.622614        -0.099085        -1.330669
 C         3.044111         1.158129        -0.511183
 O         1.866343         1.335011         0.230041
 H        -0.487013         0.104622         0.499233
 H        -0.373031         0.098318        -1.269530
 H        -0.282728        -1.388695        -0.396573
 H         1.613122        -0.639533         2.116788
 H         2.078434        -1.879762         0.854125
 H         5.129453         0.624068         0.407911
 H         4.634438        -0.444832        -1.826118
 H         4.075348        -1.745101        -0.780738
 H         2.011729        -0.202062        -2.308546
 H         3.522936         1.984642        -0.968545
