19
Iteration:  2164
 C         0.148479        -0.314600        -0.205514
 C         1.613285        -0.057358        -0.114699
 C         2.199250        -0.856547         1.013712
 O         3.465696        -0.281951         1.380475
 C         4.066328         0.164022         0.193667
 C         3.902824        -0.791458        -1.066941
 C         2.609842        -0.030005        -1.359937
 C         3.070969         1.222875        -0.599868
 O         1.848659         1.293202         0.191817
 H        -0.431603         0.241965         0.551125
 H        -0.270122        -0.055657        -1.225376
 H         0.082658        -1.388944         0.043205
 H         1.535732        -0.863003         1.792457
 H         2.266523        -1.911587         0.705916
 H         5.103001         0.582049         0.308572
 H         4.666557        -0.374466        -1.842417
 H         4.095552        -1.877117        -0.953557
 H         1.957471        -0.033349        -2.247909
 H         3.592862         2.148569        -0.938906
