19
Iteration:  4629charge 0 multiplicity 1
 C         0.067843        -0.397157        -0.154484
 C         1.613377         0.016639        -0.052327
 C         2.146071        -0.057147         1.310822
 O         3.500678         0.412822         1.336682
 C         4.079468         0.176337         0.122764
 C         3.835610        -1.285477        -0.410480
 C         2.506988        -0.671260        -1.105291
 C         3.238099         0.676978        -1.065575
 O         1.955838         1.353120        -0.519663
 H        -0.457672         0.382526        -0.598158
 H        -0.144854        -1.347012        -0.608233
 H        -0.438254        -0.635193         0.801000
 H         1.576392         0.538162         1.997689
 H         1.964926        -1.086113         1.680776
 H         5.103598         0.461273         0.212223
 H         4.615273        -1.370255        -1.186994
 H         3.705276        -2.133492         0.360974
 H         2.091934        -1.089938        -1.945824
 H         3.797318         1.231555        -1.885878
