19
Iteration:  2020
 C         0.074733        -0.357847        -0.319864
 C         1.615977        -0.114399        -0.075878
 C         2.314657        -0.917512         1.022553
 O         3.493671        -0.229537         1.418195
 C         4.023664         0.184438         0.141589
 C         3.806929        -0.823035        -1.002749
 C         2.622930         0.038578        -1.408607
 C         3.068623         1.215758        -0.624827
 O         1.902953         1.358509         0.263793
 H        -0.505465         0.262516         0.442633
 H        -0.208008         0.014331        -1.321476
 H        -0.040492        -1.397364        -0.240136
 H         1.691559        -1.034825         1.828027
 H         2.547236        -2.025733         0.717633
 H         5.132880         0.406928         0.391297
 H         4.478135        -0.702550        -1.886818
 H         3.801969        -1.863434        -0.659151
 H         2.010553         0.040872        -2.363050
 H         3.378932         2.221192        -0.929410
