19
Iteration:  3135charge 0 multiplicity 1
 C         0.085303        -0.310979        -0.369928
 C         1.603426        -0.058590         0.024853
 C         2.303764        -0.889930         1.160560
 O         3.556599        -0.264470         1.349873
 C         4.124497         0.200633         0.137086
 C         3.807221        -0.791340        -1.062580
 C         2.488914        -0.054809        -1.405676
 C         3.102868         1.213673        -0.584992
 O         1.861263         1.331306         0.227052
 H        -0.568950         0.433640         0.191140
 H         0.180276        -0.142280        -1.420001
 H        -0.314677        -1.322518        -0.183106
 H         1.698674        -0.960149         2.078395
 H         2.419704        -1.940732         0.891399
 H         5.218679         0.366180         0.152512
 H         4.455492        -0.684645        -1.943462
 H         3.548440        -1.912429        -0.888790
 H         2.072859        -0.142641        -2.387755
 H         3.376959         2.228598        -0.834351
