19
Iteration:   862charge 0 multiplicity 1
 C         0.107571        -0.311537        -0.282761
 C         1.597165        -0.086037        -0.099120
 C         2.246323        -1.009382         0.905518
 O         3.567034        -0.533123         1.271873
 C         4.115919         0.190456         0.152291
 C         3.939123        -0.556164        -1.162409
 C         2.602780         0.126498        -1.346600
 C         2.968200         1.255877        -0.364227
 O         1.782384         1.312816         0.373706
 H        -0.219947         0.467718        -0.938028
 H        -0.085314        -1.272555        -0.886934
 H        -0.471749        -0.165798         0.653611
 H         1.686737        -1.199810         1.758538
 H         2.265626        -2.085078         0.447900
 H         5.034212         0.707620         0.526497
 H         4.854857        -0.275790        -1.904209
 H         3.931930        -1.640839        -0.916484
 H         2.078942         0.138728        -2.209621
 H         3.370678         2.219408        -0.813601
