19
Iteration:  2354charge 0 multiplicity 1
 C         0.162926        -0.380727        -0.321950
 C         1.588903        -0.077867        -0.119618
 C         2.188296        -0.752782         1.202891
 O         3.565743        -0.450442         1.308643
 C         4.051264         0.216805         0.104457
 C         3.937196        -0.721279        -1.025181
 C         2.546632        -0.099692        -1.317609
 C         3.037327         1.219831        -0.543666
 O         1.887696         1.397090         0.185240
 H        -0.492586        -1.012393         0.326078
 H        -0.313794         0.626968        -0.305787
 H        -0.178598        -0.823143        -1.336844
 H         1.560842        -0.540092         2.062491
 H         2.082889        -1.885516         1.129184
 H         4.980227         0.626762         0.336989
 H         4.483418        -0.427259        -2.045826
 H         3.886211        -1.823837        -0.795685
 H         1.995752        -0.070280        -2.236570
 H         3.559469         2.020070        -1.113195
