19
Iteration:  3188
 C        -0.009830        -0.292102        -0.195207
 C         1.549543        -0.032427        -0.028631
 C         2.205085        -0.822888         1.166879
 O         3.621273        -0.482522         1.328072
 C         4.077526         0.212226         0.147775
 C         4.013352        -0.739423        -1.064091
 C         2.596196        -0.065422        -1.280722
 C         3.033306         1.198581        -0.650201
 O         1.842554         1.429804         0.050277
 H        -0.391471        -0.759800         0.718831
 H        -0.551466         0.530305        -0.575696
 H        -0.152323        -1.177915        -0.875180
 H         1.611906        -0.615438         2.078870
 H         2.028627        -1.971111         0.949099
 H         5.148397         0.544605         0.297602
 H         4.592145        -0.720900        -1.981553
 H         4.096248        -1.863324        -0.832209
 H         2.114235        -0.042367        -2.246774
 H         3.467075         2.110651        -1.066186
