19
Iteration:  1769charge 0 multiplicity 1
 C         0.163103        -0.334907        -0.408260
 C         1.611456        -0.137556        -0.018103
 C         2.276293        -0.943154         1.090686
 O         3.494171        -0.207535         1.320206
 C         4.046213         0.153550         0.076695
 C         3.824509        -0.758014        -1.055570
 C         2.558069         0.011095        -1.320312
 C         3.055500         1.218627        -0.521985
 O         1.870996         1.345122         0.269806
 H        -0.301061         0.543763         0.183546
 H         0.024871        -0.128692        -1.434931
 H        -0.196674        -1.263949         0.080102
 H         1.519404        -1.094119         2.062169
 H         2.662172        -1.913653         0.802096
 H         5.115053         0.516344         0.314708
 H         4.573229        -0.819511        -1.921700
 H         3.635568        -1.799623        -0.858391
 H         2.150867        -0.253402        -2.270097
 H         3.512297         2.192706        -0.839905
