19
Iteration:  4070
 C         0.206837        -0.350161        -0.261273
 C         1.590140        -0.007007        -0.018177
 C         2.205528        -0.540117         1.306751
 O         3.548344        -0.019041         1.354068
 C         4.105764         0.130460         0.106320
 C         3.814696        -1.072818        -0.815412
 C         2.562188        -0.299988        -1.232539
 C         3.055497         1.056858        -0.892637
 O         1.859896         1.412330        -0.101075
 H        -0.363463        -0.092969         0.626161
 H        -0.173373         0.182406        -1.085034
 H         0.127175        -1.350164        -0.407985
 H         1.598762        -0.210026         2.098827
 H         2.111940        -1.564179         1.225999
 H         5.175694         0.428541         0.391874
 H         4.490835        -1.399037        -1.560433
 H         3.693790        -2.054709        -0.303932
 H         1.998474        -0.456881        -2.120159
 H         3.286566         1.922480        -1.567316
