19
Iteration:  1321
 C         0.091024        -0.359882        -0.185292
 C         1.634052        -0.050944        -0.173226
 C         2.096760        -0.936066         1.040152
 O         3.507711        -0.528985         1.324580
 C         4.152280         0.176130         0.203433
 C         3.986325        -0.582277        -1.164103
 C         2.632932         0.018531        -1.378151
 C         3.030717         1.223462        -0.498362
 O         1.800682         1.357495         0.245040
 H        -0.067684        -1.331576         0.269760
 H        -0.469684         0.432378         0.361107
 H        -0.295538        -0.307053        -1.234385
 H         1.689717        -0.730433         2.031689
 H         2.148646        -1.984088         0.862687
 H         5.111209         0.605692         0.458291
 H         4.606851         0.014362        -1.868341
 H         4.228846        -1.620712        -1.322914
 H         2.155436         0.211988        -2.258071
 H         3.429222         2.267118        -0.874011
