19
Iteration:  2124
 C         0.023386        -0.404665        -0.381897
 C         1.610182        -0.009155        -0.041179
 C         2.223387        -0.814675         1.092745
 O         3.568333        -0.308622         1.373864
 C         4.080650         0.232859         0.088702
 C         3.882867        -0.809310        -1.018832
 C         2.548727        -0.032028        -1.326316
 C         3.123161         1.213608        -0.570469
 O         1.891080         1.335359         0.224638
 H        -0.661201        -0.654956         0.418165
 H        -0.407924         0.352553        -1.036376
 H         0.046437        -1.453644        -0.871105
 H         1.716139        -0.670565         2.131500
 H         2.286295        -1.941601         0.890926
 H         5.025776         0.435582         0.452881
 H         4.571835        -0.711099        -1.827777
 H         3.676966        -1.824103        -0.841628
 H         2.158408         0.014820        -2.324983
 H         3.296802         2.202544        -1.004041
