19
Iteration:  2472
 C         0.069211        -0.280275        -0.312899
 C         1.622485        -0.151303        -0.081872
 C         2.174429        -0.779664         1.127503
 O         3.600097        -0.455348         1.300615
 C         4.162834         0.217076         0.123274
 C         3.992462        -0.718497        -1.132377
 C         2.523118        -0.040960        -1.298100
 C         3.001775         1.165441        -0.530571
 O         1.797224         1.377827         0.247389
 H        -0.548284         0.556385        -0.072043
 H         0.011613        -0.362762        -1.389214
 H        -0.476444        -1.220500         0.107437
 H         1.668055        -0.653276         2.077467
 H         2.176026        -1.913189         1.063955
 H         5.148101         0.616642         0.427474
 H         4.690335        -0.327681        -1.933710
 H         3.910798        -1.744225        -0.865221
 H         2.030598        -0.107081        -2.317058
 H         3.441419         2.140875        -0.932016
