19
Iteration:    95
 C         0.156816        -0.546055        -0.406291
 C         1.521626        -0.066057        -0.113375
 C         2.191053        -1.040967         0.872216
 O         3.617766        -0.854953         1.023556
 C         4.163634         0.221001         0.119667
 C         3.901461        -0.213930        -1.354595
 C         2.493745         0.313756        -1.218234
 C         3.044210         1.300092        -0.029273
 O         1.843885         1.277364         0.580194
 H        -0.557192        -0.747151         0.459062
 H        -0.487864         0.360765        -0.807508
 H         0.292950        -1.370378        -1.076071
 H         1.731850        -0.768459         1.822347
 H         1.937393        -2.000706         0.476282
 H         5.166982         0.419511         0.550202
 H         4.322139         0.553665        -2.132052
 H         4.154074        -1.311811        -1.493042
 H         1.945983         0.792086        -2.053917
 H         3.403771         2.369850        -0.167061
