19
Iteration:  2653charge 0 multiplicity 1
 C         0.090367        -0.399511        -0.248510
 C         1.585804        -0.139049        -0.129983
 C         2.234069        -0.859735         0.998790
 O         3.435255        -0.267799         1.266654
 C         4.131973         0.136272         0.095272
 C         3.870913        -0.738493        -1.120835
 C         2.581448         0.118932        -1.350158
 C         3.106414         1.229211        -0.430474
 O         1.896219         1.319325         0.302617
 H        -0.208218        -0.780225        -1.247136
 H        -0.291278        -1.216461         0.416257
 H        -0.542414         0.429517         0.031064
 H         1.725673        -0.793567         2.007206
 H         2.298086        -2.058741         0.874442
 H         5.217823         0.192660         0.417895
 H         4.651731        -0.509536        -1.886858
 H         4.023552        -1.888628        -0.952014
 H         2.003064         0.122880        -2.260625
 H         3.567899         2.203803        -0.607251
