19
Iteration:  3756charge 0 multiplicity 1
 C         0.044340        -0.327585        -0.293723
 C         1.553382        -0.146214        -0.089550
 C         2.139619        -0.570283         1.295592
 O         3.550251        -0.143339         1.335692
 C         4.125735         0.158999         0.057383
 C         3.902057        -0.922202        -0.999085
 C         2.585000        -0.250752        -1.279004
 C         3.119840         1.088491        -0.688399
 O         1.878801         1.362083         0.094951
 H        -0.378390        -0.964005         0.459159
 H        -0.291706         0.740117        -0.208247
 H        -0.282187        -0.737480        -1.205589
 H         1.667039         0.005674         2.116848
 H         2.248387        -1.643692         1.490846
 H         5.167168         0.575352         0.202216
 H         4.701550        -0.781600        -1.880033
 H         4.009346        -1.965563        -0.600077
 H         2.217956        -0.353332        -2.288891
 H         3.399053         1.951366        -1.346236
