19
Iteration:  1793charge 0 multiplicity 1
 C         0.061846        -0.429216        -0.308261
 C         1.581944        -0.009821        -0.078429
 C         2.225458        -0.829576         1.015821
 O         3.575071        -0.376327         1.352697
 C         4.129323         0.190759         0.188828
 C         3.869927        -0.743675        -1.069639
 C         2.568944         0.011622        -1.319129
 C         3.044673         1.193269        -0.518618
 O         1.856448         1.378143         0.187670
 H        -0.554657         0.354881         0.314134
 H        -0.165253        -0.319847        -1.383219
 H        -0.008321        -1.338448         0.242675
 H         1.459925        -0.634239         1.890198
 H         2.287748        -1.969777         0.779090
 H         5.124034         0.440388         0.488470
 H         4.703740        -0.618045        -1.917936
 H         3.926612        -1.864138        -0.915257
 H         2.058302        -0.049434        -2.220746
 H         3.442257         2.063601        -1.175183
