19
Iteration:  4110charge 0 multiplicity 1
 C         0.063150        -0.305643        -0.183383
 C         1.568777        -0.035428        -0.066522
 C         2.120352        -0.404260         1.250074
 O         3.514741        -0.026750         1.395483
 C         4.181402         0.135683         0.123242
 C         3.946550        -0.991416        -0.855854
 C         2.583842        -0.411816        -1.216727
 C         3.060839         0.956508        -0.859717
 O         1.893078         1.360947        -0.114878
 H        -0.187129        -1.036751         0.640640
 H        -0.538799         0.631470        -0.101890
 H        -0.271569        -0.763865        -1.256495
 H         1.693351         0.189067         2.110130
 H         2.109653        -1.546362         1.545668
 H         5.181459         0.454850         0.229318
 H         4.649470        -0.751859        -1.734293
 H         3.948744        -2.088298        -0.613345
 H         2.170075        -0.572845        -2.234300
 H         3.385337         1.513429        -1.702849
