19
Iteration:  3721charge 0 multiplicity 1
 C         0.111363        -0.315264        -0.300638
 C         1.563351        -0.089009        -0.035267
 C         2.274230        -0.746580         1.245237
 O         3.540266        -0.140729         1.350918
 C         4.103395         0.214866         0.086695
 C         3.836149        -0.912848        -0.877360
 C         2.524579        -0.238147        -1.188153
 C         3.089704         1.096210        -0.791919
 O         1.882635         1.456803        -0.007845
 H        -0.349251        -0.939667         0.466564
 H        -0.397253         0.602618         0.012252
 H        -0.143915        -0.570609        -1.323218
 H         1.582864        -0.763851         2.093540
 H         2.188032        -1.872003         1.015182
 H         5.268070         0.405757         0.231745
 H         4.590116        -0.755115        -1.783767
 H         3.791754        -1.961299        -0.509446
 H         2.168671        -0.563880        -2.176574
 H         3.465971         1.952874        -1.509467
