19
Iteration:  3292charge 0 multiplicity 1
 C         0.105109        -0.267218        -0.249662
 C         1.564260        -0.087562        -0.031587
 C         2.287916        -0.825621         1.189797
 O         3.568233        -0.377727         1.351570
 C         4.086918         0.247670         0.054881
 C         3.937834        -0.853275        -1.005847
 C         2.536696        -0.142909        -1.252134
 C         2.994897         1.148253        -0.619520
 O         1.844790         1.458989         0.050708
 H        -0.118365        -1.111177        -0.916495
 H        -0.579398        -0.569725         0.625470
 H        -0.293132         0.682925        -0.738583
 H         1.697242        -0.442197         2.050193
 H         2.145801        -1.895747         0.887370
 H         5.086727         0.718673         0.211060
 H         4.748350        -0.635149        -1.851815
 H         4.101962        -1.818891        -0.570182
 H         2.038109        -0.225589        -2.294633
 H         3.365163         2.055281        -1.197786
