19
Iteration:  1719charge 0 multiplicity 1
 C         0.070072        -0.359405        -0.240103
 C         1.590872        -0.095384        -0.040714
 C         2.172343        -0.833657         1.127467
 O         3.503475        -0.475325         1.264669
 C         4.122787         0.219079         0.172501
 C         4.047855        -0.731763        -1.077662
 C         2.564070        -0.090077        -1.259339
 C         3.072948         1.243026        -0.579312
 O         1.801987         1.443562         0.108043
 H        -0.484450        -0.127430         0.681484
 H        -0.283089         0.424293        -0.980317
 H         0.011536        -1.385091        -0.531567
 H         1.631615        -0.577704         2.005830
 H         2.171244        -1.974628         1.045953
 H         5.055255         0.574971         0.517826
 H         4.658364        -0.359993        -1.916773
 H         4.119862        -1.840560        -0.956121
 H         2.121954         0.015912        -2.370684
 H         3.380398         2.224044        -1.023202
