19
Iteration:   416charge 0 multiplicity 1
 C         0.077044        -0.395398        -0.412963
 C         1.550648        -0.058217        -0.100396
 C         2.311866        -1.125744         0.767698
 O         3.560183        -0.615900         1.226495
 C         4.078859         0.159754         0.113148
 C         3.923693        -0.421016        -1.306676
 C         2.523427         0.338262        -1.325531
 C         3.053306         1.306836        -0.166308
 O         1.832128         1.225986         0.659914
 H         0.135046        -1.355508        -0.891847
 H        -0.705266        -0.456745         0.426948
 H        -0.311155         0.433942        -1.093395
 H         1.653771        -1.291772         1.602800
 H         2.496595        -2.204177         0.312626
 H         5.038610         0.653302         0.252154
 H         4.662056         0.077998        -2.005666
 H         3.888544        -1.550086        -1.443821
 H         2.109557         0.663929        -2.213013
 H         3.491323         2.294102        -0.266870
