19
Iteration:  4200
 C         0.162735        -0.357833        -0.234746
 C         1.625993        -0.068164        -0.041245
 C         2.145024        -0.390607         1.367678
 O         3.527662         0.088137         1.477141
 C         4.099639         0.144579         0.086804
 C         3.844775        -1.109206        -0.826177
 C         2.508571        -0.425986        -1.258076
 C         3.062577         1.008901        -0.968776
 O         1.966115         1.370604        -0.183931
 H        -0.067412        -0.422584        -1.358160
 H        -0.152395        -1.305207         0.286636
 H        -0.462928         0.483008         0.149662
 H         1.475790         0.080839         2.067226
 H         2.077701        -1.543790         1.520390
 H         5.150907         0.522725         0.359849
 H         4.599020        -1.056540        -1.570943
 H         3.638375        -1.973072        -0.225630
 H         1.929298        -0.786545        -2.068859
 H         3.488626         1.744507        -1.695376
