19
Iteration:  1275charge 0 multiplicity 1
 C         0.093278        -0.301931        -0.422361
 C         1.581815        -0.083770        -0.057817
 C         2.278236        -0.986287         0.940023
 O         3.567053        -0.379290         1.309151
 C         4.123460         0.218969         0.096597
 C         3.862773        -0.710067        -1.110398
 C         2.520409         0.097814        -1.235165
 C         3.004796         1.286363        -0.439938
 O         1.841674         1.253739         0.385082
 H        -0.358132        -0.541114         0.471953
 H        -0.416711         0.653902        -0.746539
 H        -0.117899        -1.017733        -1.169734
 H         1.789767        -1.159244         1.816332
 H         2.522266        -1.934551         0.449091
 H         5.205155         0.426486         0.248630
 H         4.640211        -0.508137        -1.845776
 H         3.987009        -1.777702        -0.747248
 H         2.282642         0.017625        -2.308175
 H         3.308558         2.285952        -0.844801
