19
Iteration:  4233
 C         0.020567        -0.359225        -0.156619
 C         1.557755        -0.031046        -0.040454
 C         2.098443        -0.332912         1.296703
 O         3.563102        -0.011129         1.404818
 C         4.187777         0.181085         0.058677
 C         3.991225        -1.089390        -0.774559
 C         2.530639        -0.393056        -1.154692
 C         3.134621         0.892946        -0.862618
 O         1.859963         1.425732        -0.329824
 H        -0.390169         0.428915        -0.901942
 H        -0.213776        -1.344742        -0.697923
 H        -0.503536        -0.302031         0.804883
 H         1.680282         0.053114         2.186726
 H         2.058673        -1.462262         1.416199
 H         5.187732         0.626730         0.430086
 H         4.706298        -1.499340        -1.418066
 H         3.961689        -1.872141        -0.056391
 H         2.015476        -0.575933        -2.053280
 H         3.442224         1.596626        -1.653137
