19
Iteration:  3891
 C         0.033860        -0.352912        -0.229964
 C         1.499607        -0.018123        -0.003052
 C         2.248927        -0.562044         1.199848
 O         3.570697        -0.250251         1.376407
 C         4.145137         0.190183         0.101411
 C         3.930698        -0.910212        -0.896486
 C         2.537385        -0.324077        -1.248799
 C         3.107909         1.035954        -0.782238
 O         1.849252         1.508562        -0.077707
 H        -0.077282        -1.418568        -0.487323
 H        -0.552313        -0.212900         0.653996
 H        -0.349068         0.439475        -0.960179
 H         1.784888        -0.498342         2.232312
 H         2.075829        -1.774505         1.139705
 H         5.093597         0.554202         0.317697
 H         4.610789        -0.758248        -1.865084
 H         3.969883        -1.876812        -0.297614
 H         2.016248        -0.385807        -2.227384
 H         3.630365         1.792892        -1.310288
