19
Iteration:  3129
 C         0.090718        -0.330828        -0.330808
 C         1.602297        -0.069083         0.000004
 C         2.309089        -0.872061         1.109098
 O         3.574649        -0.285875         1.340891
 C         4.104203         0.182659         0.119601
 C         3.761528        -0.809212        -1.036733
 C         2.538655        -0.021491        -1.314433
 C         3.065776         1.208007        -0.566574
 O         1.846235         1.354844         0.184778
 H        -0.496520         0.516232         0.002042
 H         0.036526        -0.247791        -1.475580
 H        -0.235560        -1.348529        -0.141789
 H         1.891699        -0.899063         2.130666
 H         2.429179        -1.919331         0.684692
 H         5.181037         0.292760         0.164609
 H         4.383845        -0.628843        -1.925451
 H         3.609387        -1.797198        -0.725681
 H         2.227396        -0.030101        -2.409619
 H         3.533564         2.197300        -0.797515
