19
Iteration:  1933charge 0 multiplicity 1
 C         0.077511        -0.401261        -0.269308
 C         1.579267        -0.050528        -0.037787
 C         2.149174        -0.756788         1.128735
 O         3.564834        -0.437681         1.291658
 C         4.148513         0.142956         0.192772
 C         4.001138        -0.758290        -1.121280
 C         2.677401        -0.019846        -1.313996
 C         3.026745         1.227065        -0.535075
 O         1.768405         1.433406         0.120083
 H        -0.583132        -0.387233         0.673251
 H        -0.576460         0.109389        -0.961793
 H        -0.118593        -1.443530        -0.405028
 H         1.455341        -0.384127         1.983234
 H         1.944565        -1.877980         0.998464
 H         5.274397         0.341052         0.443990
 H         4.731659        -0.478291        -1.898620
 H         4.061142        -1.779275        -1.054857
 H         2.013521        -0.069650        -2.225335
 H         3.515269         2.131902        -1.000016
