19
Iteration:   692charge 0 multiplicity 1
 C         0.079461        -0.400554        -0.353350
 C         1.549057        -0.067866        -0.147765
 C         2.187907        -0.987621         0.950923
 O         3.600440        -0.700260         1.178206
 C         4.170581         0.205790         0.191539
 C         3.934357        -0.470515        -1.181835
 C         2.593111         0.191381        -1.251145
 C         3.066012         1.304066        -0.325662
 O         1.784964         1.332046         0.396140
 H         0.025156        -1.540059        -0.350742
 H        -0.451700        -0.125533         0.543287
 H        -0.424289         0.118225        -1.236764
 H         1.679660        -0.695052         1.964703
 H         1.946121        -2.042482         0.619555
 H         5.106901         0.639412         0.553344
 H         4.546153        -0.015733        -1.992153
 H         4.131317        -1.620991        -1.223529
 H         2.037895         0.279601        -2.257502
 H         3.236953         2.278207        -0.725232
