19
Iteration:   307
 C         0.114805        -0.292032        -0.309430
 C         1.548859        -0.074779        -0.173510
 C         2.215479        -1.147805         0.702427
 O         3.636187        -0.732606         1.134187
 C         4.115314         0.237459         0.193826
 C         3.969956        -0.324033        -1.226923
 C         2.559164         0.311872        -1.339634
 C         2.941561         1.307103        -0.136106
 O         1.805517         1.148864         0.590879
 H        -0.294820        -0.901688         0.482014
 H        -0.475931         0.638209        -0.201125
 H        -0.130983        -0.879663        -1.260747
 H         1.692221        -1.191458         1.592730
 H         2.340458        -2.140334         0.261892
 H         5.104457         0.587829         0.567292
 H         4.672441         0.172463        -1.966001
 H         4.066049        -1.428236        -1.326478
 H         2.115188         0.622112        -2.233695
 H         3.225939         2.320638        -0.363157
