19
Iteration:  4614charge 0 multiplicity 1
 C         0.123625        -0.336799        -0.098533
 C         1.514795        -0.050164        -0.119963
 C         2.089268        -0.085348         1.355145
 O         3.438077         0.394379         1.428011
 C         4.167859         0.199255         0.110142
 C         3.832323        -1.283957        -0.520216
 C         2.609007        -0.726153        -1.056762
 C         3.121738         0.754841        -1.062762
 O         2.034099         1.346345        -0.547464
 H        -0.361479         0.156398        -0.988954
 H        -0.009344        -1.406129        -0.378754
 H        -0.298822        -0.082819         0.847220
 H         1.436791         0.666298         1.948719
 H         2.071949        -1.014224         1.867426
 H         5.192625         0.722404         0.124518
 H         4.437350        -1.756438        -1.364299
 H         3.846381        -2.101489         0.163662
 H         2.065915        -1.150884        -1.977146
 H         3.527680         1.166624        -1.965904
