19
Iteration:   195
 C         0.193301        -0.324229        -0.251242
 C         1.606284        -0.134799        -0.161365
 C         2.234060        -1.208894         0.739055
 O         3.545268        -0.818200         1.080207
 C         4.146764         0.213970         0.220975
 C         3.952050        -0.191130        -1.187097
 C         2.537073         0.321458        -1.263005
 C         2.948687         1.349157        -0.236015
 O         1.766819         1.198013         0.541039
 H        -0.143598        -0.198119         0.823939
 H        -0.298664         0.521914        -1.007648
 H        -0.127573        -1.286074        -0.443469
 H         1.575702        -1.397542         1.537702
 H         2.205341        -2.070403         0.082527
 H         5.102505         0.415191         0.617864
 H         4.534631         0.536447        -1.935656
 H         4.329234        -1.156887        -1.536901
 H         2.113497         0.541661        -2.205568
 H         3.257267         2.379871        -0.527336
