19
Iteration:  4137charge 0 multiplicity 1
 C         0.109847        -0.272608        -0.162471
 C         1.594462        -0.041951        -0.048894
 C         2.212410        -0.539500         1.325439
 O         3.504889        -0.066867         1.375353
 C         4.008377         0.238326         0.116954
 C         3.917621        -1.023246        -0.779198
 C         2.556822        -0.397117        -1.219920
 C         3.094803         0.998402        -0.856795
 O         1.899366         1.405602        -0.291260
 H        -0.036083        -1.331351        -0.026228
 H        -0.403924         0.237239         0.657288
 H        -0.291497         0.085279        -1.012042
 H         1.716459        -0.140836         2.229472
 H         2.214713        -1.623194         1.421438
 H         5.042481         0.768907         0.169508
 H         4.691101        -1.294971        -1.539419
 H         3.897212        -2.082560        -0.312350
 H         2.039671        -0.529035        -2.166277
 H         3.691305         1.644770        -1.612100
