19
Iteration:  2683
 C         0.149647        -0.304998        -0.405125
 C         1.579257        -0.145070        -0.036791
 C         2.228423        -0.830420         1.143528
 O         3.628725        -0.531630         1.350848
 C         4.154372         0.222986         0.169508
 C         3.921086        -0.660877        -1.170471
 C         2.516539        -0.018914        -1.297639
 C         2.900614         1.207693        -0.554370
 O         1.857352         1.411411         0.256681
 H        -0.013189        -0.418347        -1.556965
 H        -0.342863        -1.223794         0.130287
 H        -0.442418         0.523850        -0.059461
 H         1.707213        -0.562591         2.050169
 H         1.951023        -1.847894         0.929095
 H         5.134711         0.489690         0.372601
 H         4.519566        -0.153876        -1.989385
 H         4.132726        -1.758008        -1.024020
 H         1.828422        -0.177133        -2.081632
 H         3.316593         2.092997        -0.996537
