19
Iteration:  4307
 C         0.047147        -0.334203        -0.235180
 C         1.564628        -0.020674        -0.037043
 C         2.228752        -0.398621         1.288559
 O         3.540463         0.190133         1.376385
 C         4.096448         0.169082         0.044781
 C         3.854385        -1.118839        -0.616975
 C         2.517917        -0.484831        -1.183103
 C         3.082409         0.878701        -0.915561
 O         1.948011         1.384136        -0.275424
 H        -0.512167        -0.602472         0.722798
 H        -0.391271         0.506314        -0.830832
 H        -0.066300        -1.234540        -0.899592
 H         1.730568         0.069547         2.200285
 H         2.305465        -1.491563         1.377771
 H         5.072012         0.481751         0.346961
 H         4.749923        -1.338304        -1.330649
 H         3.915787        -2.002303         0.020525
 H         2.033630        -0.710900        -2.174758
 H         3.610240         1.555499        -1.537806
