19
Iteration:  1953charge 0 multiplicity 1
 C         0.131121        -0.380882        -0.228441
 C         1.607424        -0.037318        -0.100022
 C         2.142518        -0.717344         1.164986
 O         3.561349        -0.586281         1.259637
 C         4.066119         0.229330         0.154413
 C         4.027871        -0.666232        -1.063155
 C         2.523501        -0.041957        -1.283970
 C         3.059414         1.206230        -0.538400
 O         1.800804         1.365611         0.096610
 H        -0.596341         0.105285         0.496808
 H        -0.251702        -0.016050        -1.171247
 H        -0.018901        -1.477284        -0.212066
 H         1.650559        -0.298184         1.997870
 H         1.836523        -1.866314         1.216667
 H         5.051656         0.760662         0.533475
 H         4.582500        -0.335769        -1.944756
 H         4.212887        -1.756038        -0.812906
 H         2.291222         0.045750        -2.414055
 H         3.713182         1.950388        -0.986682
