19
Iteration:   725
 C         0.087800        -0.348253        -0.256845
 C         1.583920        -0.078485        -0.098325
 C         2.179375        -1.069676         0.971293
 O         3.536681        -0.634900         1.232353
 C         4.103839         0.208675         0.204879
 C         3.964185        -0.469825        -1.254099
 C         2.660041         0.182589        -1.340197
 C         3.022906         1.292885        -0.372760
 O         1.805515         1.320617         0.338646
 H        -0.147679        -1.089900        -1.085843
 H        -0.202199        -0.810446         0.604242
 H        -0.490832         0.563818        -0.494980
 H         1.506167        -1.050935         1.966853
 H         2.193882        -2.215789         0.736084
 H         5.028733         0.706132         0.452961
 H         4.743057         0.054569        -1.784980
 H         4.112192        -1.575758        -1.085185
 H         2.061640         0.287665        -2.365338
 H         3.457944         2.226638        -0.653031
