19
Iteration:   128
 C         0.243910        -0.395894        -0.477429
 C         1.612765        -0.119295        -0.044315
 C         2.298024        -1.160496         0.856604
 O         3.630712        -0.743891         1.145545
 C         4.037889         0.201543         0.087648
 C         3.795747        -0.322621        -1.312636
 C         2.483079         0.438714        -1.326906
 C         2.960828         1.332176        -0.119406
 O         1.818506         1.211310         0.656900
 H        -0.330845        -0.939246         0.340827
 H        -0.073937         0.653470        -0.881396
 H         0.251398        -1.007569        -1.352665
 H         1.781292        -1.296251         1.824216
 H         2.276489        -2.153851         0.429804
 H         5.034183         0.500266         0.418288
 H         4.611605        -0.070508        -2.112715
 H         3.799370        -1.450382        -1.395561
 H         1.922882         0.869158        -2.184997
 H         3.315296         2.402916        -0.200207
