19
Iteration:  2561charge 0 multiplicity 1
 C         0.070824        -0.324607        -0.402767
 C         1.623873        -0.190357        -0.066589
 C         2.157542        -0.804096         1.194047
 O         3.605722        -0.514328         1.265947
 C         4.109088         0.217967         0.111554
 C         3.900016        -0.669249        -1.143980
 C         2.578520        -0.018181        -1.338100
 C         3.034979         1.246477        -0.561609
 O         1.865291         1.375824         0.368533
 H        -0.179989        -0.031905        -1.435576
 H        -0.214137        -1.398233        -0.242321
 H        -0.434284         0.259541         0.430233
 H         1.498860        -0.420603         1.963165
 H         2.011632        -1.936848         1.213429
 H         4.971041         0.751409         0.376783
 H         4.651334        -0.286879        -1.941273
 H         3.984843        -1.749702        -1.062154
 H         1.994106         0.061298        -2.256523
 H         3.450712         2.155370        -1.031121
