19
Iteration:  3390charge 0 multiplicity 1
 C         0.076908        -0.291352        -0.354386
 C         1.567537        -0.032250         0.057982
 C         2.248679        -0.697265         1.178129
 O         3.540746        -0.215920         1.300449
 C         4.075623         0.274906         0.084874
 C         3.933892        -0.933095        -0.996005
 C         2.530913        -0.253532        -1.245846
 C         3.049655         1.116258        -0.646715
 O         1.894352         1.356896         0.116610
 H        -0.376403         0.488382        -0.915979
 H        -0.025828        -1.050738        -1.135355
 H        -0.587181        -0.521078         0.466427
 H         1.685231        -0.516056         2.135852
 H         2.346956        -1.809728         1.056646
 H         5.048789         0.682680         0.264041
 H         4.543210        -0.874660        -1.899883
 H         3.875298        -1.882412        -0.431421
 H         2.084798        -0.220138        -2.281370
 H         3.609677         1.939288        -1.194880
