19
Iteration:  3391
 C         0.078740        -0.292525        -0.350869
 C         1.563308        -0.041096         0.054870
 C         2.246365        -0.689660         1.182672
 O         3.539986        -0.215442         1.302412
 C         4.071774         0.271385         0.087582
 C         3.935405        -0.932793        -1.001190
 C         2.525073        -0.256927        -1.246264
 C         3.049009         1.115949        -0.650579
 O         1.902734         1.355242         0.114451
 H        -0.363179         0.520791        -0.890751
 H        -0.016886        -1.025870        -1.128864
 H        -0.615190        -0.553977         0.472066
 H         1.663072        -0.537937         2.124481
 H         2.331300        -1.799679         1.063253
 H         5.062225         0.705495         0.273684
 H         4.554451        -0.864856        -1.894153
 H         3.905260        -1.831810        -0.445286
 H         2.108486        -0.194438        -2.293017
 H         3.615292         1.947763        -1.192638
