19
Iteration:  3778
 C         0.067421        -0.373761        -0.168619
 C         1.555394        -0.038525        -0.047842
 C         2.186971        -0.594504         1.199968
 O         3.517880        -0.222519         1.395556
 C         4.160398         0.153519         0.163556
 C         3.909427        -0.910422        -0.981122
 C         2.522623        -0.184442        -1.285273
 C         3.121906         1.110264        -0.757121
 O         1.894609         1.384327        -0.070374
 H        -0.240225        -1.086746         0.561112
 H        -0.552006         0.560434        -0.201431
 H        -0.129582        -0.900777        -1.070120
 H         1.623383        -0.093374         2.028739
 H         2.025809        -1.797694         1.258179
 H         5.231897         0.463535         0.354357
 H         4.745475        -0.755926        -1.833536
 H         3.846146        -1.972578        -0.662279
 H         2.046764        -0.313528        -2.238265
 H         3.478027         2.058234        -1.216611
