19
Iteration:  1843charge 0 multiplicity 1
 C         0.085692        -0.342001        -0.303626
 C         1.605931        -0.089509        -0.099588
 C         2.152482        -0.756294         1.184858
 O         3.568308        -0.459916         1.344208
 C         4.134002         0.202607         0.164190
 C         3.954200        -0.683678        -1.093795
 C         2.593132        -0.099945        -1.347376
 C         3.010652         1.211831        -0.582448
 O         1.803591         1.364454         0.166594
 H        -0.303755        -0.172474         0.689802
 H        -0.110983         0.373022        -1.052129
 H        -0.092707        -1.420350        -0.535683
 H         1.684557        -0.378087         2.047354
 H         1.868655        -1.872155         1.025473
 H         5.205962         0.477614         0.552305
 H         4.634837        -0.364168        -1.833530
 H         4.207363        -1.747645        -1.067897
 H         2.012424        -0.050713        -2.368829
 H         3.471223         2.053250        -1.024092
