19
Iteration:   164
 C         0.040665        -0.313736        -0.366927
 C         1.528421        -0.159631        -0.101622
 C         2.359385        -1.201099         0.706866
 O         3.537463        -0.595074         1.158387
 C         4.146844         0.198735         0.096521
 C         3.987826        -0.370819        -1.255182
 C         2.502328         0.418346        -1.312887
 C         2.958203         1.276880        -0.169050
 O         1.842141         1.135302         0.705739
 H        -0.633756        -0.436624         0.435873
 H        -0.427773         0.656379        -0.825205
 H        -0.096996        -1.125793        -1.042653
 H         1.811254        -1.603687         1.496557
 H         2.627559        -1.949530        -0.051570
 H         5.122093         0.540442         0.352303
 H         4.690440         0.091413        -1.933407
 H         4.056993        -1.415446        -1.248042
 H         2.212588         0.768390        -2.253223
 H         3.240836         2.321613        -0.239539
