19
Iteration:  3468
 C         0.145795        -0.396246        -0.230241
 C         1.582195        -0.003885        -0.035811
 C         2.215323        -0.629946         1.147199
 O         3.547772        -0.200547         1.374105
 C         4.127531         0.226408         0.141582
 C         3.806798        -0.971929        -0.847364
 C         2.516080        -0.200738        -1.336808
 C         3.084528         1.190321        -0.706106
 O         1.917140         1.385626        -0.019689
 H        -0.421771        -0.484540         0.672263
 H        -0.311203         0.316213        -0.828078
 H        -0.093031        -1.282338        -0.840808
 H         1.629553        -0.656013         2.071907
 H         2.189412        -1.736697         0.946517
 H         5.163667         0.602636         0.228154
 H         4.394379        -0.954288        -1.800997
 H         3.753110        -2.018904        -0.522983
 H         1.985505        -0.668830        -2.196310
 H         3.500775         2.057006        -1.319705
