19
Iteration:  2048charge 0 multiplicity 1
 C         0.127101        -0.384151        -0.254605
 C         1.599395        -0.074021        -0.100714
 C         2.172370        -0.772783         1.016788
 O         3.499723        -0.363452         1.303308
 C         4.114021         0.228157         0.184959
 C         3.908220        -0.763976        -1.072678
 C         2.639307        -0.046372        -1.299148
 C         3.085378         1.145645        -0.552657
 O         1.825352         1.402705         0.178516
 H        -0.348066        -0.276508         0.720579
 H        -0.406927         0.303006        -0.891949
 H        -0.005612        -1.505531        -0.508324
 H         1.568150        -0.732815         2.107201
 H         2.168142        -1.871040         0.903398
 H         5.048990         0.586590         0.569005
 H         4.363237        -0.614441        -2.056390
 H         3.997917        -1.862285        -0.717164
 H         2.148152        -0.028027        -2.267965
 H         3.479624         2.077826        -0.962405
