19
Iteration:  2765charge 0 multiplicity 1
 C         0.084973        -0.457586        -0.283923
 C         1.604932        -0.024707        -0.040956
 C         2.307583        -0.946181         0.984362
 O         3.441430        -0.225861         1.430556
 C         4.136604         0.153734         0.120251
 C         3.835929        -0.784996        -1.143707
 C         2.570719         0.024651        -1.361719
 C         3.116468         1.191844        -0.542198
 O         1.861400         1.432194         0.263257
 H        -0.266860         0.502433        -0.556380
 H        -0.076376        -1.146999        -1.060338
 H        -0.434568        -0.607553         0.719550
 H         1.661704        -1.051042         1.907469
 H         2.349957        -1.983557         0.470327
 H         5.239498         0.391622         0.333278
 H         4.631486        -0.932606        -1.895523
 H         3.660246        -1.865593        -0.797620
 H         1.952812         0.083042        -2.299857
 H         3.512772         2.129046        -1.027780
