19
Iteration:    52charge 0 multiplicity 1
 C         0.189859        -0.311818        -0.310976
 C         1.669939        -0.155556        -0.090485
 C         2.252947        -1.244985         0.724168
 O         3.605183        -0.760107         1.133615
 C         4.085914         0.254716         0.168747
 C         3.896637        -0.248718        -1.282701
 C         2.525125         0.353164        -1.349149
 C         2.939559         1.387532        -0.177407
 O         1.760278         1.139683         0.609321
 H        -0.357204         0.058122         0.635619
 H        -0.231436         0.643198        -0.962895
 H        -0.088884        -1.281535        -0.524614
 H         1.684931        -1.415187         1.625778
 H         2.460005        -2.162381         0.055288
 H         5.093011         0.545466         0.504348
 H         4.659755         0.178187        -2.012835
 H         3.938623        -1.332824        -1.281556
 H         1.942085         0.486734        -2.265644
 H         3.294199         2.465158        -0.165362
