19
Iteration:  3032charge 0 multiplicity 1
 C         0.074157        -0.300251        -0.403555
 C         1.541837        -0.121232        -0.020199
 C         2.293825        -0.955247         1.107838
 O         3.568935        -0.345241         1.313929
 C         4.129848         0.240100         0.090406
 C         3.830509        -0.799994        -1.026842
 C         2.496940        -0.017720        -1.265446
 C         3.086239         1.239669        -0.599474
 O         1.868486         1.390800         0.274164
 H        -0.265499         0.716507        -0.338183
 H        -0.060183        -0.632474        -1.471964
 H        -0.448301        -1.020462         0.229468
 H         1.756614        -0.780597         2.045715
 H         2.524360        -2.016399         0.919509
 H         5.110636         0.744189         0.293694
 H         4.429795        -0.791233        -2.030008
 H         3.925084        -1.730366        -0.461540
 H         2.094226        -0.095452        -2.325486
 H         3.456666         2.145109        -1.184771
