19
Iteration:   194
 C         0.200572        -0.322134        -0.257748
 C         1.611666        -0.129410        -0.160671
 C         2.234089        -1.215032         0.737429
 O         3.540688        -0.812095         1.080875
 C         4.141395         0.218712         0.228758
 C         3.942838        -0.189220        -1.193643
 C         2.533923         0.312467        -1.257798
 C         2.959259         1.349976        -0.238603
 O         1.769292         1.192238         0.545248
 H        -0.141725        -0.198996         0.845572
 H        -0.309116         0.530296        -0.980440
 H        -0.146579        -1.289245        -0.447235
 H         1.553558        -1.418489         1.570204
 H         2.215636        -2.071673         0.051918
 H         5.110536         0.435144         0.623429
 H         4.547005         0.541781        -1.948983
 H         4.320636        -1.185507        -1.547309
 H         2.133241         0.537562        -2.252096
 H         3.232797         2.402015        -0.544332
