19
Iteration:   880
 C         0.074013        -0.266783        -0.430507
 C         1.549139        -0.124246        -0.062069
 C         2.333598        -1.099326         0.913818
 O         3.541743        -0.400584         1.265194
 C         4.109091         0.251940         0.160439
 C         3.892373        -0.668813        -1.128393
 C         2.523779         0.105811        -1.257173
 C         3.065325         1.320555        -0.393025
 O         1.821288         1.247132         0.418479
 H        -0.310859         0.650680        -0.874139
 H        -0.149833        -1.043722        -1.122070
 H        -0.484131        -0.497118         0.434845
 H         1.900597        -1.288618         1.967956
 H         2.629035        -2.115571         0.577170
 H         5.157863         0.483901         0.260040
 H         4.431826        -0.406340        -2.001304
 H         3.938482        -1.729038        -1.121825
 H         2.071768         0.489433        -2.369151
 H         3.399793         2.368047        -0.643268
