19
Iteration:  4479charge 0 multiplicity 1
 C         0.113920        -0.317808        -0.143994
 C         1.602201        -0.051578        -0.113167
 C         2.156201        -0.192756         1.293785
 O         3.507632         0.167752         1.405274
 C         4.127482         0.190664         0.141074
 C         3.868801        -1.226461        -0.517022
 C         2.588219        -0.626694        -1.105242
 C         3.063088         0.821825        -1.008195
 O         1.890912         1.436853        -0.463115
 H        -0.382995         0.164553         0.730651
 H        -0.286506         0.082214        -1.119571
 H        -0.046328        -1.460308        -0.217560
 H         1.671867         0.651674         1.805054
 H         2.127876        -1.090254         1.857841
 H         5.114726         0.561997         0.200173
 H         4.508350        -1.299484        -1.375155
 H         3.955921        -2.122173         0.101314
 H         2.199848        -1.005428        -2.116431
 H         3.484655         1.381923        -1.855082
