19
Iteration:  1543charge 0 multiplicity 1
 C         0.066866        -0.442506        -0.351727
 C         1.541330        -0.005347        -0.104639
 C         2.252355        -0.889433         1.044808
 O         3.564395        -0.380738         1.372511
 C         4.158314         0.217283         0.132392
 C         3.906618        -0.762286        -1.111624
 C         2.553905        -0.017379        -1.222799
 C         3.047242         1.188301        -0.524196
 O         1.817703         1.432573         0.222322
 H        -0.362899         0.626381        -0.385296
 H         0.150678        -0.887062        -1.305393
 H        -0.432418        -0.918130         0.446473
 H         1.669831        -0.633099         2.017912
 H         2.146355        -1.958756         0.796661
 H         5.214246         0.433448         0.324779
 H         4.691551        -0.634618        -1.834477
 H         3.785695        -1.809989        -0.883084
 H         2.080783         0.093945        -2.295679
 H         3.584595         2.087634        -1.067995
