19
Iteration:  3454charge 0 multiplicity 1
 C         0.035908        -0.386806        -0.154576
 C         1.556887        -0.014237        -0.133187
 C         2.223364        -0.709591         1.152084
 O         3.563591        -0.248180         1.370647
 C         4.110751         0.189524         0.141854
 C         3.865090        -0.914103        -0.906789
 C         2.596204        -0.201050        -1.274926
 C         3.117640         1.144914        -0.751193
 O         1.847071         1.471738        -0.034417
 H        -0.421581        -0.121935         0.830252
 H        -0.441072         0.100833        -1.078467
 H         0.096759        -1.471492        -0.226509
 H         1.685206        -0.276563         2.024469
 H         2.218136        -1.802825         1.001635
 H         5.069094         0.513871         0.459579
 H         4.667926        -1.059486        -1.687042
 H         3.737353        -1.944447        -0.321365
 H         2.236828        -0.175568        -2.316173
 H         3.474051         2.056238        -1.282461
