19
Iteration:   841charge 0 multiplicity 1
 C         0.110718        -0.394393        -0.236635
 C         1.583368        -0.060719        -0.144415
 C         2.181658        -0.998745         0.969951
 O         3.530315        -0.640000         1.213410
 C         4.077964         0.233601         0.203231
 C         3.977790        -0.525364        -1.182406
 C         2.569071         0.155992        -1.329055
 C         3.074864         1.280310        -0.413717
 O         1.830664         1.319417         0.318710
 H        -0.460627         0.033786        -1.063958
 H         0.099227        -1.566591        -0.293695
 H        -0.331987         0.065904         0.714218
 H         1.524236        -0.757941         1.764314
 H         1.953050        -2.072132         0.806324
 H         4.968361         0.595518         0.788799
 H         4.595813         0.244174        -1.820426
 H         4.278270        -1.606061        -1.238860
 H         2.184745         0.289403        -2.227051
 H         3.470996         2.294388        -0.676761
