19
Iteration:  4053charge 0 multiplicity 1
 C         0.167133        -0.382784        -0.220033
 C         1.607979        -0.018479        -0.061820
 C         2.247974        -0.564910         1.166998
 O         3.541569        -0.040801         1.434087
 C         4.091784         0.199554         0.075582
 C         3.775575        -1.085609        -0.771046
 C         2.482693        -0.328936        -1.279882
 C         3.094045         1.044066        -0.801071
 O         1.912079         1.487932        -0.098033
 H        -0.574439         0.328882         0.220742
 H        -0.074036        -0.329996        -1.360228
 H         0.005686        -1.477297         0.252237
 H         1.676786        -0.274572         2.122836
 H         2.277121        -1.761848         1.176705
 H         5.079845         0.590938         0.125940
 H         4.530623        -1.048823        -1.620491
 H         3.698778        -2.053972        -0.259762
 H         1.892769        -0.552904        -2.232139
 H         3.587913         1.777736        -1.441710
