19
Iteration:  2080
 C         0.107945        -0.343042        -0.322167
 C         1.555610        -0.058359         0.011714
 C         2.095573        -0.706052         1.278486
 O         3.564701        -0.503079         1.309326
 C         4.122929         0.187610         0.185613
 C         3.972703        -0.661594        -1.153162
 C         2.636134        -0.067531        -1.361516
 C         3.028232         1.167354        -0.588949
 O         1.821662         1.345842         0.095478
 H        -0.502180        -0.751888         0.455325
 H        -0.438627         0.439422        -0.836205
 H        -0.080769        -1.230677        -1.060651
 H         1.904914        -0.188886         2.362282
 H         2.155645        -1.798907         1.365098
 H         5.055032         0.598923         0.433559
 H         4.631350        -0.338464        -1.954423
 H         4.171752        -1.699758        -0.972950
 H         2.101358        -0.138410        -2.286382
 H         3.551644         2.089336        -0.913243
