19
Iteration:  4076
 C         0.150505        -0.342563        -0.251369
 C         1.598000        -0.028148        -0.007011
 C         2.168630        -0.524258         1.314242
 O         3.535222        -0.010403         1.395751
 C         4.142024         0.138537         0.036642
 C         3.815971        -1.048570        -0.828531
 C         2.613920        -0.344050        -1.249778
 C         3.084510         1.061929        -0.851367
 O         1.869354         1.415101        -0.110028
 H        -0.522826        -0.251048         0.644652
 H        -0.279049         0.411843        -1.003136
 H         0.110361        -1.513089        -0.580536
 H         1.646913        -0.107296         2.257192
 H         2.095023        -1.727505         1.372358
 H         5.143449         0.415213         0.183757
 H         4.529790        -1.230703        -1.719565
 H         3.527306        -1.978237        -0.317851
 H         2.045809        -0.620060        -2.188487
 H         3.315612         1.877084        -1.510008
