19
Iteration:   723
 C         0.098772        -0.357439        -0.253009
 C         1.577815        -0.074348        -0.090609
 C         2.184820        -1.059213         0.981612
 O         3.531326        -0.645671         1.214161
 C         4.100785         0.199845         0.199619
 C         3.979117        -0.462797        -1.242889
 C         2.668814         0.184166        -1.361000
 C         3.028862         1.276429        -0.360389
 O         1.790638         1.336838         0.341038
 H        -0.127151        -1.106228        -0.991835
 H        -0.204393        -0.788753         0.610565
 H        -0.431029         0.578737        -0.538825
 H         1.498007        -1.084539         2.002417
 H         2.111493        -2.207252         0.712792
 H         5.038395         0.763897         0.444758
 H         4.701832         0.032621        -1.775209
 H         4.099946        -1.542340        -1.053556
 H         2.026755         0.268558        -2.460865
 H         3.430256         2.229040        -0.639698
