19
Iteration:  3199charge 0 multiplicity 1
 C         0.075315        -0.396411        -0.174688
 C         1.520184        -0.007730        -0.016675
 C         2.222056        -0.778480         1.145713
 O         3.625726        -0.513255         1.345426
 C         4.099697         0.207612         0.142898
 C         3.893531        -0.778984        -1.029079
 C         2.628277        -0.083711        -1.385905
 C         3.069066         1.162473        -0.587990
 O         1.794741         1.512754         0.019697
 H        -0.388954        -0.680709         0.764406
 H        -0.404768         0.540392        -0.209516
 H        -0.220453        -0.955585        -1.085109
 H         1.697939        -0.677689         2.122228
 H         2.258922        -1.880873         0.736958
 H         5.014043         0.721278         0.561634
 H         4.611538        -0.405571        -1.777312
 H         3.817438        -1.907500        -0.845015
 H         2.258792         0.092104        -2.367951
 H         3.495370         1.954101        -1.205366
