19
Iteration:   767
 C         0.112076        -0.298791        -0.459875
 C         1.577559        -0.087098        -0.063445
 C         2.311260        -1.110891         0.899247
 O         3.559241        -0.392406         1.277296
 C         4.028846         0.235874         0.114284
 C         3.908967        -0.667642        -1.195996
 C         2.565849         0.155379        -1.262633
 C         3.033212         1.330946        -0.349681
 O         1.865200         1.245468         0.517126
 H         0.087391        -0.623574        -1.500456
 H        -0.149753        -1.197041        -0.005635
 H        -0.601968         0.532616        -0.295732
 H         1.656570        -1.288401         1.867290
 H         2.344697        -2.119302         0.450518
 H         5.080421         0.514466         0.361032
 H         4.467596        -0.469312        -2.025635
 H         3.619787        -1.721579        -1.125915
 H         1.946203         0.386866        -2.333986
 H         3.272611         2.333078        -0.597105
