19
Iteration:  2948charge 0 multiplicity 1
 C         0.155685        -0.347624        -0.288026
 C         1.576338        -0.129179        -0.063935
 C         2.158235        -0.778234         1.092759
 O         3.636969        -0.583341         1.160367
 C         4.073427         0.228948         0.169216
 C         3.951704        -0.666147        -1.067450
 C         2.528387        -0.088170        -1.287242
 C         2.970982         1.171175        -0.488312
 O         1.830102         1.513031         0.185465
 H        -0.348012         0.080204        -1.126541
 H        -0.082015        -1.421170        -0.294682
 H        -0.390519         0.179424         0.587116
 H         1.811638        -0.385395         2.065833
 H         2.031963        -1.960260         1.330692
 H         5.109950         0.676937         0.413039
 H         4.668474        -0.322691        -1.820066
 H         4.172216        -1.721442        -0.672527
 H         2.123352        -0.096657        -2.263004
 H         3.415626         2.092611        -0.893813
