19
Iteration:  1720
 C         0.058967        -0.354301        -0.243622
 C         1.600004        -0.096700        -0.045263
 C         2.171640        -0.838591         1.118684
 O         3.502609        -0.466865         1.266332
 C         4.120590         0.222471         0.172309
 C         4.043877        -0.727479        -1.081808
 C         2.565278        -0.098816        -1.261065
 C         3.073336         1.237957        -0.573829
 O         1.805703         1.442764         0.115581
 H        -0.479913        -0.129723         0.650627
 H        -0.290381         0.415207        -1.014240
 H        -0.011115        -1.403859        -0.511771
 H         1.683931        -0.565957         2.074646
 H         2.171102        -1.951448         1.049587
 H         5.092726         0.576230         0.487446
 H         4.666665        -0.390179        -1.875580
 H         4.122391        -1.832031        -0.954319
 H         2.110431         0.014024        -2.384310
 H         3.358025         2.206671        -0.987989
