19
Iteration:  1694charge 0 multiplicity 1
 C         0.107414        -0.421583        -0.245851
 C         1.607290        -0.009389        -0.085940
 C         2.156584        -0.741414         1.118004
 O         3.578122        -0.532309         1.330614
 C         4.071773         0.204491         0.211289
 C         3.949845        -0.682667        -1.068540
 C         2.555113        -0.108427        -1.353454
 C         3.086689         1.193351        -0.546211
 O         1.812764         1.448060         0.073211
 H        -0.268242        -0.703168         0.831663
 H        -0.506270         0.418955        -0.461367
 H         0.196144        -1.287276        -0.901546
 H         1.550261        -0.443564         2.016018
 H         1.980768        -1.889772         0.992533
 H         5.089455         0.582142         0.383428
 H         4.784098        -0.290792        -1.833379
 H         3.904989        -1.772025        -0.901845
 H         2.108462        -0.006795        -2.339205
 H         3.453011         2.215652        -0.931422
