19
Iteration:  2929
 C         0.048711        -0.330051        -0.332407
 C         1.570727        -0.075730         0.004351
 C         2.204737        -0.811190         1.155157
 O         3.562260        -0.535914         1.302143
 C         4.132167         0.296767         0.086866
 C         3.950968        -0.661712        -1.153336
 C         2.561414        -0.055712        -1.258597
 C         3.060328         1.230591        -0.604883
 O         1.847833         1.317153         0.275493
 H        -0.136077        -0.197031        -1.445130
 H        -0.272409        -1.337003        -0.116476
 H        -0.627324         0.451341         0.116915
 H         1.725345        -0.521099         2.117495
 H         2.066388        -1.925799         1.090327
 H         5.082717         0.728978         0.406959
 H         4.521458        -0.465699        -2.075007
 H         4.139426        -1.741518        -1.028779
 H         2.043971         0.035344        -2.224628
 H         3.511698         2.041123        -1.171111
