19
Iteration:  3419
 C         0.078409        -0.284279        -0.218914
 C         1.624235        -0.067522        -0.058381
 C         2.192784        -0.678991         1.206403
 O         3.487237        -0.199886         1.390557
 C         4.110139         0.162295         0.186239
 C         3.917631        -0.836540        -1.075857
 C         2.586825        -0.266513        -1.295689
 C         3.068524         1.164224        -0.746955
 O         1.887293         1.328573         0.038152
 H        -0.543611         0.645541         0.103200
 H        -0.432313        -0.729308        -1.179818
 H        -0.248089        -1.062241         0.493596
 H         1.424635        -0.280357         1.895679
 H         2.112995        -1.738813         1.465326
 H         5.158388         0.383575         0.350581
 H         4.646789        -0.479259        -1.850091
 H         4.071906        -2.011382        -0.918529
 H         2.212034        -0.332064        -2.299509
 H         3.627146         1.927652        -1.213870
