19
Iteration:    40charge 0 multiplicity 1
 C         0.152277        -0.266230        -0.321753
 C         1.589026        -0.155959        -0.138594
 C         2.391466        -1.234040         0.655613
 O         3.551684        -0.640312         1.116555
 C         4.037916         0.254545         0.183488
 C         3.887388        -0.308700        -1.238936
 C         2.483622         0.363412        -1.236157
 C         2.995493         1.281950        -0.188781
 O         1.821351         1.116265         0.649104
 H        -0.256210        -0.061521         0.719900
 H        -0.140788         0.393591        -1.259747
 H        -0.239893        -1.190080        -0.673140
 H         1.838308        -1.621270         1.520210
 H         2.488828        -2.189413         0.043717
 H         4.976667         0.662342         0.605779
 H         4.557596         0.244710        -1.974681
 H         4.009179        -1.406991        -1.489289
 H         1.966773         0.688131        -2.181689
 H         3.346012         2.319556        -0.453094
