19
Iteration:  3485charge 0 multiplicity 1
 C         0.176240        -0.341618        -0.322111
 C         1.584987        -0.067053        -0.062195
 C         2.223931        -0.702143         1.218840
 O         3.534385        -0.054849         1.389565
 C         4.048586         0.144473         0.069372
 C         3.861117        -0.956155        -0.980946
 C         2.528950        -0.238594        -1.244874
 C         3.093981         1.042113        -0.737664
 O         1.887834         1.441444         0.086430
 H        -0.482114        -0.737337         0.530528
 H        -0.477241         0.623644        -0.592654
 H         0.174092        -1.099664        -1.123812
 H         1.722982        -0.394354         2.179276
 H         2.248249        -1.816503         1.361017
 H         5.060931         0.459418         0.253484
 H         4.583517        -0.861278        -1.815231
 H         3.728391        -1.969271        -0.438979
 H         2.027494        -0.119506        -2.210970
 H         3.410573         1.857961        -1.374314
