19
Iteration:  3679charge 0 multiplicity 1
 C         0.112833        -0.352606        -0.132323
 C         1.605056        -0.083290        -0.148152
 C         2.170724        -0.596725         1.184576
 O         3.468001        -0.127270         1.404016
 C         4.067678         0.117959         0.164286
 C         3.918841        -0.942651        -0.951472
 C         2.626037        -0.247525        -1.426855
 C         3.069025         1.098548        -0.750504
 O         1.888940         1.392429         0.002808
 H         0.108119        -1.376454         0.221219
 H        -0.213418         0.308024         0.717752
 H        -0.574716        -0.069566        -0.879873
 H         1.595792        -0.181182         2.059908
 H         2.167312        -1.689953         1.339817
 H         5.112124         0.598802         0.264542
 H         4.803768        -0.753609        -1.734088
 H         3.824377        -1.994496        -0.576604
 H         2.029082        -0.337722        -2.333988
 H         3.556169         2.024091        -1.202046
