19
Iteration:  2855
 C         0.097548        -0.425612        -0.231151
 C         1.556303        -0.027436        -0.081918
 C         2.184042        -0.840903         1.019381
 O         3.569961        -0.464411         1.262112
 C         4.103648         0.235173         0.161862
 C         3.937415        -0.761851        -1.120432
 C         2.606653        -0.013107        -1.286631
 C         3.067192         1.230281        -0.465895
 O         1.825059         1.425149         0.205707
 H        -0.398722        -0.238441        -1.216704
 H        -0.117354        -1.441733         0.027667
 H        -0.390439         0.262424         0.429454
 H         1.632142        -0.530744         1.935585
 H         2.060637        -1.980168         0.864108
 H         5.076862         0.513932         0.471670
 H         4.620580        -0.545299        -2.007427
 H         4.022267        -1.802714        -0.855643
 H         2.152642         0.213599        -2.312153
 H         3.352831         2.109067        -1.091362
