19
Iteration:  3875
 C         0.071082        -0.290514        -0.266646
 C         1.572516        -0.023842         0.030941
 C         2.157646        -0.712643         1.328678
 O         3.607175        -0.223122         1.337796
 C         4.097440         0.248194         0.109783
 C         3.896538        -0.941035        -0.942124
 C         2.543681        -0.270790        -1.195934
 C         3.058837         1.116458        -0.763252
 O         1.914701         1.401795        -0.101466
 H        -0.153743        -1.367174        -0.380402
 H        -0.574635         0.297100         0.461445
 H        -0.196866        -0.092646        -1.267340
 H         1.602671        -0.188640         2.071860
 H         2.144880        -1.730162         1.227809
 H         5.100598         0.812800         0.336194
 H         4.472357        -0.786511        -1.781159
 H         4.008681        -1.965259        -0.705501
 H         1.998219        -0.474935        -2.114467
 H         3.443385         1.821869        -1.577815
