19
Iteration:   190
 C         0.200863        -0.301097        -0.278085
 C         1.634231        -0.108995        -0.140649
 C         2.229591        -1.235248         0.718465
 O         3.527643        -0.783872         1.089609
 C         4.105368         0.239247         0.253676
 C         3.932614        -0.190733        -1.243931
 C         2.527752         0.280877        -1.255316
 C         3.000755         1.360859        -0.240813
 O         1.783249         1.170414         0.563382
 H        -0.128826        -0.174566         0.773988
 H        -0.292867         0.422061        -0.763015
 H        -0.223278        -1.367870        -0.541173
 H         1.563243        -1.480015         1.667359
 H         2.284966        -2.113708        -0.020977
 H         5.134630         0.526798         0.664022
 H         4.508558         0.460811        -1.864793
 H         4.225317        -1.248299        -1.542819
 H         2.195939         0.514704        -2.346141
 H         3.145243         2.408425        -0.553396
