19
Iteration:  4876
 C         0.138191        -0.234962        -0.164397
 C         1.592082         0.019648        -0.026891
 C         2.146876         0.040252         1.368996
 O         3.426991         0.596766         1.326200
 C         4.067475         0.167942         0.108633
 C         3.875366        -1.325240        -0.306358
 C         2.554926        -0.901134        -0.955919
 C         3.091661         0.565254        -1.173141
 O         2.022021         1.290908        -0.683368
 H        -0.587670         0.523625         0.309415
 H        -0.166108        -0.562641        -1.243078
 H        -0.089306        -1.195667         0.420424
 H         1.508607         0.771550         1.868773
 H         2.254883        -0.880460         1.867264
 H         5.118939         0.387368         0.306112
 H         4.724914        -1.686768        -0.966279
 H         3.811599        -2.093627         0.491515
 H         1.981484        -1.409114        -1.835505
 H         3.624519         0.680130        -2.074815
