19
Iteration:  1381charge 0 multiplicity 1
 C         0.185298        -0.421872        -0.480145
 C         1.656562        -0.084795        -0.035664
 C         2.267994        -0.896707         1.100734
 O         3.543484        -0.330580         1.310514
 C         4.103486         0.175750         0.096663
 C         3.779858        -0.771332        -1.101657
 C         2.520700         0.070532        -1.268196
 C         2.988409         1.274322        -0.511332
 O         1.901785         1.351163         0.379533
 H         0.009225        -0.867522        -1.560327
 H        -0.560310        -0.914750         0.207562
 H        -0.283594         0.540629        -0.740699
 H         1.530062        -0.969115         1.984470
 H         2.257567        -1.895888         0.627272
 H         5.150438         0.534540         0.187434
 H         4.602044        -0.653726        -1.816224
 H         3.740031        -1.837517        -0.739490
 H         1.970936         0.127113        -2.224952
 H         3.399096         2.149724        -0.885964
