19
Iteration:   592
 C         0.151364        -0.351202        -0.287810
 C         1.582194        -0.072903        -0.119840
 C         2.202212        -1.061844         0.953447
 O         3.540497        -0.711293         1.126474
 C         4.074917         0.226020         0.201645
 C         3.996463        -0.398351        -1.186457
 C         2.556912         0.205007        -1.304821
 C         3.036866         1.293687        -0.310760
 O         1.781108         1.263060         0.393052
 H        -0.299643        -0.052574         0.713132
 H        -0.179152         0.228183        -1.097686
 H        -0.236869        -1.489213        -0.468992
 H         1.556087        -0.885085         1.893808
 H         2.129858        -2.058209         0.584096
 H         5.100903         0.548710         0.553140
 H         4.704378         0.196053        -1.758795
 H         4.282421        -1.464346        -1.638083
 H         2.060801         0.473186        -2.297548
 H         3.484517         2.265744        -0.465070
