19
Iteration:  2551
 C         0.190121        -0.346170        -0.320853
 C         1.585525        -0.062302        -0.085779
 C         2.221188        -0.871860         1.129793
 O         3.541728        -0.488958         1.304600
 C         4.118136         0.230215         0.119447
 C         3.920723        -0.706145        -1.139753
 C         2.505438         0.029288        -1.288015
 C         3.000351         1.235283        -0.513910
 O         1.863094         1.358899         0.264730
 H        -0.124026         0.154134        -1.270368
 H        -0.142957        -1.397201        -0.466936
 H        -0.557979         0.087387         0.330029
 H         1.749823        -0.444063         1.997652
 H         2.100256        -2.016620         1.050801
 H         5.097273         0.417678         0.384719
 H         4.635519        -0.526160        -2.032629
 H         3.879438        -1.819357        -1.046892
 H         2.077792         0.021783        -2.255020
 H         3.275595         2.191780        -0.933950
