19
Iteration:  2635
 C         0.099599        -0.434572        -0.202859
 C         1.541839        -0.010352        -0.172050
 C         2.248578        -0.938134         0.902708
 O         3.519167        -0.326536         1.350038
 C         4.124058         0.190455         0.211947
 C         3.838377        -0.792379        -1.104940
 C         2.615305         0.087616        -1.324057
 C         3.118041         1.280440        -0.527983
 O         1.851689         1.338112         0.314202
 H        -0.228340        -0.758588        -1.157838
 H        -0.131700        -1.147955         0.553390
 H        -0.519129         0.484438         0.105689
 H         1.500724        -1.161680         1.669476
 H         2.311173        -1.876578         0.466268
 H         5.228925         0.488189         0.310337
 H         4.495002        -0.751978        -1.940563
 H         3.625507        -1.788928        -0.848773
 H         2.253978         0.218623        -2.419696
 H         3.465667         2.207905        -1.079409
