19
Iteration:  3459
 C         0.069383        -0.391706        -0.164788
 C         1.550247        -0.014797        -0.136113
 C         2.245897        -0.670773         1.136210
 O         3.549832        -0.250975         1.379692
 C         4.097982         0.200434         0.149485
 C         3.850230        -0.952276        -0.879892
 C         2.575304        -0.201567        -1.291616
 C         3.129565         1.180560        -0.743532
 O         1.872735         1.446230        -0.032960
 H        -0.555252        -0.193148         0.695939
 H        -0.415962         0.205085        -0.877366
 H         0.113037        -1.480008        -0.429432
 H         1.830187        -0.422375         2.122231
 H         2.227355        -1.777763         1.010943
 H         5.121083         0.561663         0.509180
 H         4.480562        -0.998818        -1.749829
 H         3.698499        -1.817671        -0.400588
 H         2.139137        -0.404347        -2.295630
 H         3.342969         2.104073        -1.306388
