19
Iteration:  3279
 C         0.131789        -0.264449        -0.332756
 C         1.594068        -0.086132         0.049302
 C         2.223465        -0.797937         1.148109
 O         3.626803        -0.279020         1.308411
 C         4.123021         0.180719         0.131055
 C         3.907415        -0.825463        -1.028059
 C         2.526600        -0.168817        -1.263630
 C         3.018295         1.182018        -0.677843
 O         1.773553         1.396207         0.130360
 H        -0.012036        -1.202120        -0.882410
 H        -0.507875        -0.045820         0.569338
 H        -0.044360         0.539729        -0.978610
 H         1.770673        -0.845674         2.150785
 H         2.315833        -1.910593         1.068525
 H         5.076181         0.548816         0.423703
 H         4.596282        -0.789110        -1.933296
 H         3.716931        -1.875414        -0.720835
 H         1.896837        -0.267244        -2.156890
 H         3.453684         2.028419        -1.202963
