19
Iteration:   428charge 0 multiplicity 1
 C         0.063994        -0.391375        -0.371806
 C         1.537840        -0.092546        -0.086292
 C         2.239792        -1.149455         0.847519
 O         3.568526        -0.672536         1.143052
 C         4.153561         0.176270         0.173691
 C         3.968855        -0.361195        -1.281554
 C         2.501892         0.335711        -1.289721
 C         3.053464         1.325014        -0.216284
 O         1.818930         1.258254         0.551954
 H        -0.107748        -1.115412        -1.162398
 H        -0.386580        -0.673583         0.569577
 H        -0.450256         0.578150        -0.835529
 H         1.834833        -1.371069         1.782043
 H         2.313576        -2.103227         0.121082
 H         5.151643         0.284843         0.680482
 H         4.615291         0.191928        -2.000040
 H         4.240134        -1.477625        -1.437080
 H         1.989857         0.510903        -2.155055
 H         3.328791         2.374694        -0.306581
