19
Iteration:   427charge 0 multiplicity 1
 C         0.061730        -0.391331        -0.377980
 C         1.535230        -0.087792        -0.091609
 C         2.247751        -1.150110         0.843866
 O         3.566164        -0.668107         1.148867
 C         4.149999         0.171670         0.170373
 C         3.969537        -0.367764        -1.284496
 C         2.497000         0.338110        -1.294450
 C         3.059996         1.325291        -0.212464
 O         1.819039         1.259131         0.562389
 H        -0.098307        -1.127007        -1.147929
 H        -0.424701        -0.691664         0.613692
 H        -0.408871         0.556893        -0.870296
 H         1.812312        -1.378801         1.806983
 H         2.340046        -2.097247         0.133532
 H         5.145244         0.317046         0.642265
 H         4.635510         0.186390        -2.016417
 H         4.229798        -1.478899        -1.434457
 H         1.988271         0.510977        -2.178072
 H         3.324032         2.369494        -0.284853
