19
Iteration:  2840
 C         0.096952        -0.334710        -0.264874
 C         1.531271        -0.072883        -0.087805
 C         2.108957        -0.740299         1.175611
 O         3.589730        -0.500232         1.300937
 C         4.165216         0.182215         0.149232
 C         3.987161        -0.596192        -1.168759
 C         2.525447        -0.032717        -1.293916
 C         3.106196         1.110615        -0.557623
 O         1.808233         1.335701         0.189377
 H        -0.230840        -0.012124        -1.244012
 H         0.195160        -1.453027        -0.328980
 H        -0.603556        -0.051141         0.641892
 H         1.543759        -0.448641         2.073839
 H         1.973001        -1.742196         1.030296
 H         5.105097         0.753064         0.491689
 H         4.580601        -0.272621        -2.022655
 H         4.189364        -1.736174        -1.226387
 H         2.014794        -0.002912        -2.248705
 H         3.573913         2.090339        -0.762278
