19
Iteration:  3893
 C         0.057452        -0.353983        -0.219396
 C         1.472470        -0.008973        -0.006761
 C         2.234353        -0.556237         1.193998
 O         3.575382        -0.238759         1.378420
 C         4.162900         0.169700         0.092861
 C         3.928307        -0.911960        -0.891247
 C         2.545241        -0.336290        -1.270697
 C         3.092517         1.034739        -0.763541
 O         1.845186         1.510944        -0.070369
 H        -0.076437        -1.429369        -0.601532
 H        -0.478616        -0.229243         0.752653
 H        -0.400489         0.419044        -0.919527
 H         1.732941        -0.456085         2.189880
 H         2.088602        -1.747081         1.062331
 H         5.167581         0.585890         0.309213
 H         4.607128        -0.773701        -1.798060
 H         3.969255        -1.897014        -0.301466
 H         2.052334        -0.386929        -2.265222
 H         3.653349         1.815114        -1.315261
