19
Iteration:  1977
 C         0.092761        -0.372055        -0.321436
 C         1.569537        -0.093799        -0.061451
 C         2.157736        -0.776415         1.194100
 O         3.542844        -0.467633         1.279175
 C         4.127191         0.191187         0.147650
 C         3.998166        -0.686467        -1.107488
 C         2.580287        -0.083451        -1.311338
 C         3.001938         1.235440        -0.580689
 O         1.845323         1.384437         0.214183
 H        -0.505041         0.464051         0.201628
 H        -0.139310        -0.102840        -1.369363
 H        -0.296190        -1.330827        -0.059632
 H         1.706706        -0.549589         2.178321
 H         2.041500        -1.940959         1.175601
 H         5.121302         0.647124         0.511120
 H         4.744095        -0.339032        -1.855445
 H         3.987663        -1.722170        -1.024356
 H         2.280080        -0.189915        -2.390321
 H         3.479533         2.108220        -1.100324
