19
Iteration:  2437charge 0 multiplicity 1
 C         0.095380        -0.308318        -0.318748
 C         1.551586        -0.109351        -0.021411
 C         2.209756        -0.829548         1.185367
 O         3.563784        -0.444341         1.268494
 C         4.109152         0.219719         0.104893
 C         3.999232        -0.722101        -1.095613
 C         2.559552        -0.093452        -1.288697
 C         3.032630         1.187347        -0.531833
 O         1.803772         1.429317         0.194641
 H        -0.521956        -0.056762         0.532880
 H        -0.073014         0.404944        -1.135608
 H        -0.025092        -1.336744        -0.779790
 H         1.633563        -0.533058         2.099990
 H         2.141291        -1.896944         0.935930
 H         5.135205         0.653683         0.417239
 H         4.640692        -0.502841        -1.913169
 H         4.048975        -1.784514        -1.052871
 H         1.896565        -0.227273        -2.218731
 H         3.517673         2.077266        -1.027987
