19
Iteration:  4201charge 0 multiplicity 1
 C         0.155350        -0.349425        -0.238630
 C         1.635246        -0.068094        -0.046559
 C         2.147959        -0.387670         1.358431
 O         3.531066         0.082483         1.480459
 C         4.091085         0.145363         0.084196
 C         3.841681        -1.105777        -0.825341
 C         2.511081        -0.426318        -1.249212
 C         3.058196         1.005821        -0.964087
 O         1.966136         1.372553        -0.190475
 H        -0.079374        -0.423591        -1.339818
 H        -0.133516        -1.314274         0.268886
 H        -0.462352         0.427074         0.178796
 H         1.489330         0.091807         2.083853
 H         2.085642        -1.541554         1.544677
 H         5.159445         0.521391         0.384700
 H         4.618450        -1.054479        -1.577324
 H         3.652490        -2.027045        -0.214190
 H         1.927177        -0.810892        -2.041208
 H         3.469216         1.788131        -1.692949
