19
Iteration:  3849
 C         0.071793        -0.268722        -0.257954
 C         1.600069        -0.110630        -0.063473
 C         2.285013        -0.570092         1.221714
 O         3.523796        -0.078211         1.344437
 C         4.053492         0.143263         0.111371
 C         3.951108        -0.971963        -1.002075
 C         2.534642        -0.279759        -1.323538
 C         3.048130         1.082802        -0.693152
 O         1.890918         1.328975         0.123423
 H        -0.518110        -1.201705         0.081989
 H        -0.375007         0.688371         0.006155
 H        -0.166143        -0.448658        -1.388295
 H         1.515244        -0.105077         1.868297
 H         2.218582        -1.678008         1.299341
 H         5.056969         0.529078         0.337749
 H         4.738919        -0.793233        -1.821654
 H         3.956162        -2.006822        -0.526012
 H         1.878951        -0.428345        -2.230823
 H         3.495182         1.829165        -1.354521
