19
Iteration:  1943
 C         0.103479        -0.422686        -0.236296
 C         1.513922        -0.043562        -0.075567
 C         2.149034        -0.704770         1.152675
 O         3.538738        -0.527959         1.240145
 C         4.131379         0.161190         0.177392
 C         3.988945        -0.681888        -1.075435
 C         2.645826        -0.072218        -1.319409
 C         3.093734         1.187520        -0.528345
 O         1.757751         1.437624         0.107332
 H        -0.288152         0.047886         0.721945
 H        -0.204602         0.106340        -1.119377
 H         0.013022        -1.492378        -0.360536
 H         1.809495        -0.360010         2.144129
 H         2.000347        -1.873628         1.057984
 H         5.170750         0.560234         0.575805
 H         4.716339        -0.313187        -1.801205
 H         4.054078        -1.747178        -0.976877
 H         2.124027        -0.066235        -2.356282
 H         3.304121         2.186524        -0.919360
