19
Iteration:   791charge 0 multiplicity 1
 C         0.169510        -0.366462        -0.429999
 C         1.596060        -0.122883        -0.103150
 C         2.258566        -1.004931         0.942420
 O         3.638877        -0.531270         1.266440
 C         4.077899         0.192336         0.147357
 C         3.837003        -0.512200        -1.151039
 C         2.521929         0.161741        -1.278418
 C         3.009944         1.278036        -0.358515
 O         1.826763         1.309645         0.430865
 H         0.036772        -0.451296        -1.532043
 H        -0.134815        -1.271627        -0.096687
 H        -0.415359         0.443880        -0.042037
 H         1.530179        -0.972058         1.837654
 H         2.170548        -2.089432         0.645728
 H         5.109444         0.280833         0.419476
 H         4.532976        -0.274800        -1.898943
 H         3.658530        -1.597915        -1.048024
 H         1.984919         0.416387        -2.351408
 H         3.393081         2.240755        -0.631543
