19
Iteration:  3257charge 0 multiplicity 1
 C         0.073722        -0.323988        -0.388951
 C         1.566820        -0.097535        -0.059209
 C         2.286630        -0.767494         1.124953
 O         3.541009        -0.187631         1.399643
 C         4.117283         0.182059         0.014561
 C         3.814488        -0.865157        -1.054163
 C         2.473994        -0.115637        -1.292012
 C         3.057796         1.166611        -0.577004
 O         1.959559         1.326519         0.249331
 H        -0.017797        -1.424234        -0.304216
 H        -0.537145         0.318048         0.311651
 H        -0.169682        -0.087574        -1.378939
 H         1.639368        -0.618062         2.019095
 H         2.339503        -1.912956         1.231750
 H         5.051610         0.628295         0.187945
 H         4.591408        -0.631989        -1.827186
 H         3.901104        -1.964781        -0.789766
 H         2.070730        -0.042216        -2.299085
 H         3.398163         2.061502        -1.076156
