19
Iteration:    17
 C        -0.032031        -0.316645        -0.381707
 C         1.485875        -0.104625        -0.040585
 C         2.330776        -1.213137         0.653719
 O         3.563579        -0.567009         1.221827
 C         4.203642         0.208667         0.098346
 C         3.947344        -0.293356        -1.310385
 C         2.531463         0.322457        -1.325315
 C         3.030574         1.356788        -0.170641
 O         1.851778         1.088812         0.729095
 H        -0.629049        -0.301799         0.544990
 H        -0.329366         0.349133        -1.206604
 H        -0.216600        -1.294439        -0.890409
 H         1.832910        -1.907193         1.373389
 H         2.578042        -1.912142        -0.136482
 H         5.214488         0.427988         0.503541
 H         4.647381         0.135469        -2.067638
 H         3.998723        -1.466604        -1.445374
 H         1.953294         0.346336        -2.316258
 H         3.296078         2.434584        -0.160620
