19
Iteration:  2324
 C         0.021894        -0.324375        -0.305389
 C         1.537138        -0.082515        -0.052704
 C         2.120913        -0.698531         1.176291
 O         3.554944        -0.416955         1.269789
 C         4.123098         0.155913         0.091055
 C         4.095110        -0.666075        -1.097480
 C         2.598615        -0.167417        -1.316432
 C         3.060183         1.202883        -0.483294
 O         1.817315         1.319932         0.163174
 H        -0.559224        -0.838485         0.542450
 H        -0.502966         0.696931        -0.332509
 H        -0.108457        -0.698130        -1.322872
 H         1.775016        -0.386592         2.239382
 H         2.181749        -1.795937         1.277190
 H         5.113657         0.537815         0.396559
 H         4.576022        -0.332082        -1.921585
 H         4.245839        -1.768982        -1.041860
 H         2.122840        -0.294908        -2.310074
 H         3.478813         2.079053        -0.928762
