19
Iteration:   221
 C        -0.013890        -0.411455        -0.362090
 C         1.494906        -0.028324        -0.090705
 C         2.258468        -1.139047         0.873645
 O         3.669581        -0.833083         1.047899
 C         4.087831         0.230655         0.193660
 C         4.025744        -0.254718        -1.362001
 C         2.656311         0.416463        -1.306671
 C         3.062246         1.280542        -0.091903
 O         1.697461         1.209162         0.558342
 H        -0.441546        -0.139298         0.549333
 H        -0.377238         0.060690        -1.182859
 H        -0.212769        -1.582171        -0.382663
 H         1.690088        -1.291031         1.799963
 H         2.161650        -2.077899         0.315410
 H         5.031915         0.636957         0.704963
 H         4.674926         0.160874        -2.017303
 H         4.059813        -1.316191        -1.574151
 H         2.204745         0.791248        -2.259822
 H         3.439768         2.284915        -0.221397
