19
Iteration:   429charge 0 multiplicity 1
 C         0.066129        -0.389207        -0.366668
 C         1.540892        -0.096947        -0.080848
 C         2.233451        -1.148959         0.847304
 O         3.570432        -0.677163         1.137799
 C         4.156591         0.180716         0.176773
 C         3.968272        -0.355625        -1.278839
 C         2.509035         0.331970        -1.282542
 C         3.046413         1.324527        -0.219720
 O         1.818808         1.256937         0.542112
 H        -0.114146        -1.110660        -1.176213
 H        -0.356652        -0.657530         0.529665
 H        -0.481231         0.583368        -0.790791
 H         1.844288        -1.367274         1.772942
 H         2.286444        -2.097295         0.124566
 H         5.153560         0.261384         0.707095
 H         4.593338         0.197021        -1.981540
 H         4.241802        -1.463855        -1.437976
 H         1.979847         0.519332        -2.157813
 H         3.337469         2.381174        -0.331048
