19
Iteration:  3852charge 0 multiplicity 1
 C         0.086069        -0.262411        -0.270647
 C         1.644024        -0.109043        -0.055943
 C         2.260823        -0.568426         1.243712
 O         3.509308        -0.105106         1.357475
 C         4.051698         0.150663         0.094994
 C         3.964362        -0.942038        -1.007304
 C         2.514411        -0.281839        -1.312877
 C         3.043130         1.057952        -0.717698
 O         1.867184         1.336379         0.119762
 H        -0.456726        -1.178594         0.002883
 H        -0.360923         0.704244         0.085843
 H        -0.115908        -0.423995        -1.312563
 H         1.626067        -0.062127         1.959278
 H         2.234983        -1.589265         1.205186
 H         5.164632         0.442078         0.318438
 H         4.639413        -0.912391        -1.763626
 H         4.022096        -1.921133        -0.562431
 H         1.921247        -0.497751        -2.212319
 H         3.491069         1.895285        -1.375016
