19
Iteration:  4543charge 0 multiplicity 1
 C         0.109258        -0.286042        -0.180640
 C         1.573458         0.001625        -0.023356
 C         2.172695        -0.179038         1.330057
 O         3.462447         0.351050         1.331834
 C         4.062262         0.207349         0.085749
 C         3.834710        -1.216106        -0.494642
 C         2.588360        -0.676559        -1.102616
 C         3.114939         0.748572        -1.001504
 O         2.009936         1.295203        -0.454748
 H         0.040386        -1.377327        -0.034790
 H        -0.576448         0.118405         0.660845
 H        -0.219618         0.139751        -1.205065
 H         1.570252         0.355677         2.003650
 H         2.105414        -1.307009         1.521164
 H         5.007904         0.642851         0.242367
 H         4.522514        -1.559169        -1.175977
 H         3.736693        -2.121599         0.131010
 H         2.232412        -1.107291        -2.060911
 H         3.521211         1.388252        -1.822311
