19
Iteration:   392charge 0 multiplicity 1
 C         0.254389        -0.401638        -0.476974
 C         1.629855        -0.107114        -0.147429
 C         2.301801        -1.132282         0.798781
 O         3.530728        -0.613316         1.185967
 C         4.141024         0.167141         0.166246
 C         3.747081        -0.459091        -1.259791
 C         2.456808         0.431963        -1.278299
 C         3.058013         1.433365        -0.177591
 O         1.841533         1.125859         0.634895
 H         0.009349        -1.456255        -0.454025
 H        -0.499390         0.225160         0.308581
 H         0.036420         0.124826        -1.340373
 H         1.630433        -1.435333         1.728916
 H         2.531260        -2.143528         0.317803
 H         5.119232         0.496689         0.296249
 H         4.493740        -0.226653        -2.112968
 H         3.501698        -1.502582        -1.229938
 H         1.898106         0.696820        -2.203951
 H         3.220846         2.510484        -0.256883
