19
Iteration:  2987charge 0 multiplicity 1
 C         0.060473        -0.429062        -0.227802
 C         1.560785        -0.098832        -0.130623
 C         2.218511        -0.837446         1.115043
 O         3.526726        -0.334156         1.376843
 C         4.131638         0.128499         0.126384
 C         3.867562        -0.717917        -1.169460
 C         2.574754         0.004452        -1.350774
 C         3.105077         1.180708        -0.493067
 O         1.887285         1.416737         0.195443
 H        -0.478211         0.482719        -0.557238
 H        -0.072428        -1.221381        -1.023582
 H        -0.266386        -0.869019         0.680266
 H         1.562764        -0.474826         1.928194
 H         2.137582        -1.895575         0.999177
 H         5.165958         0.346591         0.340292
 H         4.593061        -0.287926        -1.925779
 H         3.779497        -1.793867        -1.105997
 H         2.034290         0.276823        -2.316242
 H         3.659013         2.042062        -0.936492
