19
Iteration:  2390
 C         0.004345        -0.515069        -0.300678
 C         1.626153        -0.039902        -0.145911
 C         2.272916        -0.876536         1.058183
 O         3.513906        -0.200251         1.385888
 C         4.117020         0.127553         0.146339
 C         3.784139        -0.807765        -1.072296
 C         2.568751         0.036835        -1.310207
 C         3.121515         1.178978        -0.534083
 O         1.911656         1.428499         0.200013
 H        -0.362996        -0.957816         0.682076
 H        -0.397706         0.573663        -0.401538
 H        -0.142195        -0.984812        -1.240406
 H         1.636571        -0.901375         1.990484
 H         2.431214        -1.832580         0.561015
 H         5.196830         0.322497         0.360283
 H         4.479291        -0.855003        -1.855516
 H         3.681656        -1.891138        -0.751443
 H         2.178695         0.211092        -2.311464
 H         3.515959         2.113968        -0.829141
