19
Iteration:  3223charge 0 multiplicity 1
 C         0.151194        -0.402388        -0.197171
 C         1.592911        -0.012182        -0.087134
 C         2.180965        -0.767503         1.071534
 O         3.523738        -0.341259         1.378293
 C         4.108446         0.130364         0.076886
 C         3.878342        -0.835250        -1.048403
 C         2.579195        -0.052982        -1.309173
 C         3.104920         1.251833        -0.574732
 O         1.855904         1.387544         0.095933
 H         0.018415        -1.109361         0.662285
 H        -0.590939         0.362835         0.107830
 H        -0.117878        -0.805900        -1.119289
 H         1.472725        -0.488497         1.898306
 H         2.278295        -1.900346         0.926907
 H         5.076981         0.396919         0.398826
 H         4.405998        -0.618922        -1.980595
 H         3.674878        -1.918694        -0.794932
 H         2.055029         0.138584        -2.204383
 H         3.467587         2.154111        -0.995888
