19
Iteration:  1836charge 0 multiplicity 1
 C         0.159171        -0.353593        -0.240985
 C         1.558479        -0.107552        -0.106861
 C         2.131632        -0.750033         1.189000
 O         3.528211        -0.467221         1.305168
 C         4.110770         0.144198         0.177362
 C         4.008840        -0.626019        -1.131296
 C         2.642942        -0.075889        -1.321461
 C         3.027883         1.180747        -0.598589
 O         1.795388         1.364968         0.148105
 H        -0.470967        -0.004305         0.657228
 H        -0.275858         0.274089        -1.062736
 H         0.007140        -1.414574        -0.407025
 H         1.663291        -0.372599         2.243470
 H         1.838618        -1.753830         1.074424
 H         5.024228         0.671760         0.477041
 H         4.764884        -0.413668        -1.965159
 H         3.881407        -1.715215        -1.009463
 H         2.125091        -0.023006        -2.235361
 H         3.551601         2.128662        -0.962136
