19
Iteration:  2591
 C         0.020806        -0.281450        -0.360377
 C         1.589165        -0.113299        -0.000121
 C         2.180676        -0.816802         1.146692
 O         3.540458        -0.511685         1.254764
 C         4.234992         0.202597         0.094626
 C         4.001885        -0.648507        -1.197256
 C         2.574920        -0.060478        -1.262954
 C         3.062283         1.207015        -0.505700
 O         1.776644         1.308950         0.284927
 H        -0.052927        -0.424406        -1.410155
 H        -0.184211        -1.188146         0.163400
 H        -0.606966         0.638255        -0.003552
 H         1.538685        -0.484616         2.037790
 H         2.077736        -1.881677         1.100709
 H         5.150968         0.766213         0.569277
 H         4.495501        -0.083455        -1.959423
 H         4.170081        -1.679909        -1.218039
 H         1.967495         0.191072        -2.227213
 H         3.358186         2.198834        -0.991514
