19
Iteration:  2538charge 0 multiplicity 1
 C         0.139535        -0.352043        -0.310752
 C         1.584157        -0.029679         0.018307
 C         2.204104        -0.870635         1.031368
 O         3.577713        -0.381935         1.291371
 C         4.103632         0.120809         0.139053
 C         3.833916        -0.727172        -1.102135
 C         2.575684         0.015024        -1.315799
 C         3.097220         1.237418        -0.492142
 O         1.791451         1.360667         0.208955
 H        -0.163335         0.252225        -1.161478
 H         0.257887        -1.400801        -0.571912
 H        -0.432070        -0.259086         0.694980
 H         1.637758        -1.001260         1.959095
 H         2.235141        -1.930015         0.607529
 H         5.090554         0.527268         0.382809
 H         4.545349        -0.493869        -1.960476
 H         3.909012        -1.761260        -0.811345
 H         1.954628         0.173573        -2.239577
 H         3.560365         2.201138        -0.844921
