19
Iteration:   185
 C         0.170034        -0.321356        -0.284369
 C         1.642817        -0.098618        -0.093183
 C         2.223684        -1.256265         0.677802
 O         3.521423        -0.739698         1.113532
 C         4.055562         0.268409         0.258566
 C         3.947935        -0.237518        -1.297193
 C         2.542013         0.268269        -1.292299
 C         3.027647         1.365221        -0.224378
 O         1.812222         1.149048         0.589464
 H        -0.198675        -0.155294         0.733723
 H        -0.455394         0.585821        -0.798072
 H        -0.150547        -1.225637        -0.684531
 H         1.784954        -1.503399         1.573800
 H         2.379326        -2.131994         0.074091
 H         4.966952         0.588670         0.680740
 H         4.594939         0.490528        -1.887862
 H         4.070060        -1.278413        -1.485412
 H         2.157210         0.474080        -2.228959
 H         3.158920         2.418405        -0.483146
