19
Iteration:  2084
 C         0.133055        -0.365039        -0.335040
 C         1.536853        -0.059935        -0.000456
 C         2.135849        -0.709416         1.297961
 O         3.550153        -0.507825         1.313097
 C         4.092226         0.202734         0.167931
 C         3.963607        -0.673906        -1.189175
 C         2.634508        -0.088356        -1.317668
 C         3.042673         1.196436        -0.573039
 O         1.812137         1.343775         0.107448
 H        -0.517065        -0.671944         0.534555
 H        -0.313612         0.517997        -0.810856
 H        -0.006156        -1.083128        -1.116705
 H         1.810985        -0.146957         2.245519
 H         2.026036        -1.794805         1.353739
 H         5.127315         0.680287         0.396599
 H         4.752924        -0.355841        -1.912250
 H         4.173680        -1.836573        -0.964266
 H         2.121135        -0.092977        -2.352690
 H         3.522931         2.061863        -1.036998
