19
Iteration:  4724
 C         0.092023        -0.229378        -0.123153
 C         1.553765        -0.045202        -0.064456
 C         2.143538        -0.052401         1.342383
 O         3.511824         0.396305         1.367897
 C         4.097754         0.216335         0.114719
 C         3.852649        -1.230973        -0.363110
 C         2.565578        -0.900068        -1.044278
 C         3.153997         0.673187        -1.099359
 O         1.934376         1.324605        -0.678195
 H        -0.125725        -0.954463         0.710449
 H        -0.429172         0.778595        -0.027421
 H        -0.132933        -0.580712        -1.131374
 H         1.652735         0.695899         2.072453
 H         2.057791        -1.033306         1.939941
 H         5.094215         0.594925         0.391164
 H         4.593159        -1.346045        -1.179395
 H         3.909033        -1.929040         0.392895
 H         2.057352        -1.480596        -1.865342
 H         3.636684         1.247717        -1.852806
