19
Iteration:  3755charge 0 multiplicity 1
 C         0.049845        -0.323950        -0.299070
 C         1.550549        -0.141910        -0.085785
 C         2.147763        -0.563291         1.294090
 O         3.549185        -0.143306         1.339531
 C         4.120895         0.163014         0.059485
 C         3.915462        -0.927686        -1.007338
 C         2.571273        -0.251475        -1.279960
 C         3.118697         1.079455        -0.687757
 O         1.878320         1.361344         0.098048
 H        -0.349028        -0.962007         0.470019
 H        -0.305563         0.726222        -0.230503
 H        -0.289652        -0.709777        -1.215315
 H         1.641306        -0.007819         2.116245
 H         2.246845        -1.709425         1.490827
 H         5.186453         0.593281         0.180307
 H         4.708401        -0.787426        -1.871531
 H         3.981237        -1.948296        -0.570535
 H         2.210039        -0.383314        -2.292591
 H         3.398983         1.982475        -1.333235
