19
Iteration:  1894charge 0 multiplicity 1
 C         0.135897        -0.343983        -0.361116
 C         1.626129        -0.078469        -0.101599
 C         2.269767        -0.894781         1.024103
 O         3.485466        -0.183752         1.371747
 C         4.070361         0.152281         0.101080
 C         3.828369        -0.838549        -1.005456
 C         2.539252        -0.040513        -1.275000
 C         3.022317         1.259266        -0.616295
 O         1.910475         1.325420         0.305280
 H        -0.333665        -0.669254         0.539350
 H        -0.154946         0.577097        -0.941262
 H         0.257401        -1.132049        -1.147653
 H         1.685916        -0.801690         1.970983
 H         2.465208        -1.970988         0.782913
 H         5.003555         0.531373         0.313285
 H         4.603860        -0.808656        -1.830368
 H         3.656091        -1.981956        -0.781360
 H         2.055143        -0.114257        -2.233087
 H         3.481686         2.218588        -1.013724
