19
Iteration:  1411
 C         0.044271        -0.356284        -0.359809
 C         1.609455        -0.085394        -0.123582
 C         2.280788        -0.887646         1.060157
 O         3.530802        -0.317989         1.371637
 C         4.144310         0.159331         0.152349
 C         3.885906        -0.731378        -1.166305
 C         2.559238         0.034309        -1.310828
 C         3.039513         1.211336        -0.483368
 O         1.856237         1.313019         0.298888
 H        -0.112548        -0.846026        -1.398319
 H        -0.412723        -1.055627         0.338246
 H        -0.509257         0.630240        -0.163971
 H         1.414474        -0.788720         1.842476
 H         2.308682        -1.891617         0.682772
 H         5.137335         0.501410         0.491633
 H         4.660169        -0.400354        -1.892471
 H         3.912754        -1.789450        -0.996686
 H         2.088402         0.108709        -2.224706
 H         3.523567         2.169890        -0.951209
