19
Iteration:  4280
 C         0.112953        -0.297985        -0.126353
 C         1.620677        -0.068501        -0.070507
 C         2.173606        -0.449258         1.262310
 O         3.444025         0.242084         1.470662
 C         4.145736         0.205520         0.083797
 C         3.853018        -1.199328        -0.780823
 C         2.570934        -0.474956        -1.212420
 C         3.092635         0.917836        -0.919560
 O         1.928209         1.361263        -0.288565
 H        -0.444988         0.380468         0.465847
 H        -0.185543        -0.105030        -1.158567
 H        -0.116974        -1.316730         0.112184
 H         1.515991        -0.017228         2.037988
 H         2.244962        -1.528232         1.566110
 H         5.075167         0.594948         0.540280
 H         4.551666        -1.344461        -1.594827
 H         3.794607        -2.198720        -0.248440
 H         2.146440        -0.684918        -2.193277
 H         3.592101         1.674003        -1.621239
