19
Iteration:  4702charge 0 multiplicity 1
 C        -0.024755        -0.299040        -0.114189
 C         1.524141         0.006167        -0.054633
 C         2.066830        -0.023114         1.342120
 O         3.470897         0.432371         1.347127
 C         4.132538         0.193558         0.066178
 C         3.992086        -1.330608        -0.455420
 C         2.614654        -0.704604        -0.978651
 C         3.239064         0.604690        -1.099395
 O         1.970818         1.307072        -0.597080
 H        -0.430613        -0.350550         0.932712
 H        -0.526977         0.594512        -0.628250
 H        -0.307680        -1.123956        -0.758244
 H         1.443921         0.608667         2.101720
 H         2.061040        -1.062735         1.829807
 H         5.070427         0.701488         0.387554
 H         4.667538        -1.547481        -1.311906
 H         3.923511        -2.077145         0.285131
 H         2.029633        -1.349377        -1.691893
 H         3.437671         1.120094        -1.977865
