19
Iteration:  1171charge 0 multiplicity 1
 C         0.075359        -0.278485        -0.299898
 C         1.623997        -0.131946        -0.078123
 C         2.225112        -1.037353         0.915689
 O         3.541307        -0.451634         1.262565
 C         4.074359         0.250755         0.172130
 C         3.997022        -0.587612        -1.170747
 C         2.547920         0.055188        -1.303388
 C         3.022644         1.242500        -0.396011
 O         1.823258         1.285401         0.367619
 H        -0.355917         0.652847         0.173576
 H        -0.243988        -0.473397        -1.248573
 H        -0.241915        -1.031477         0.447613
 H         1.590760        -1.234531         1.753336
 H         2.370739        -2.021890         0.443998
 H         5.053012         0.578798         0.476735
 H         4.546522        -0.051789        -1.975782
 H         4.030814        -1.638421        -1.305941
 H         2.225111         0.222006        -2.466018
 H         3.357541         2.184965        -0.777297
