19
Iteration:  4499charge 0 multiplicity 1
 C         0.033316        -0.357825        -0.125946
 C         1.615028         0.000152        -0.060448
 C         2.082832        -0.151259         1.382728
 O         3.537014         0.245594         1.422703
 C         4.116049         0.180761         0.111247
 C         3.863787        -1.205659        -0.588474
 C         2.574229        -0.551951        -1.176508
 C         3.189853         0.810386        -0.976915
 O         1.914732         1.297069        -0.528400
 H        -0.386117        -0.473815         0.883045
 H        -0.560171         0.473950        -0.661831
 H        -0.086842        -1.272615        -0.811347
 H         1.739621         0.401916         2.163699
 H         2.072374        -1.220837         1.538651
 H         5.130315         0.491572         0.100571
 H         4.618164        -1.605185        -1.141387
 H         3.680814        -1.943228         0.195010
 H         2.100285        -0.997073        -2.021461
 H         3.728523         1.475011        -1.693868
