19
Iteration:  2209
 C         0.129775        -0.319908        -0.324270
 C         1.530619        -0.028338        -0.023156
 C         2.154900        -0.735122         1.166372
 O         3.605930        -0.537186         1.236685
 C         4.131009         0.222399         0.157627
 C         4.089769        -0.680307        -1.045711
 C         2.529598        -0.153272        -1.272187
 C         3.024742         1.192331        -0.506521
 O         1.785769         1.362690         0.141087
 H        -0.376687         0.493577         0.191443
 H        -0.164518        -0.117301        -1.393874
 H        -0.311026        -1.354338        -0.025759
 H         1.672822        -0.365925         1.992154
 H         1.831001        -1.779574         1.110680
 H         5.126164         0.681544         0.338299
 H         4.520854        -0.383746        -2.110621
 H         4.118050        -1.746824        -0.971988
 H         2.056764        -0.096874        -2.271432
 H         3.142571         2.169636        -1.054445
