19
Iteration:  1906
 C         0.161186        -0.379438        -0.356474
 C         1.616278        -0.085381        -0.075850
 C         2.239148        -0.834153         1.082736
 O         3.517992        -0.252806         1.342700
 C         4.080424         0.225765         0.188248
 C         3.780931        -0.760174        -1.031094
 C         2.540987        -0.028178        -1.383748
 C         3.088592         1.151253        -0.543363
 O         1.910871         1.340929         0.226048
 H        -0.402420        -0.544555         0.534928
 H        -0.485975         0.420370        -0.759204
 H        -0.073395        -1.331103        -0.931954
 H         1.601567        -0.750721         1.923253
 H         2.334558        -1.962185         0.851072
 H         5.104431         0.417544         0.347535
 H         4.566915        -0.518402        -1.767359
 H         3.778504        -1.935182        -0.829982
 H         2.016293        -0.027945        -2.361779
 H         3.573037         2.043303        -0.995899
