19
Iteration:  3531
 C         0.085252        -0.296088        -0.257894
 C         1.589558        -0.084053        -0.078126
 C         2.229082        -0.613603         1.228946
 O         3.553111        -0.215808         1.348247
 C         4.150449         0.263375         0.127581
 C         3.894821        -0.970846        -0.912229
 C         2.545268        -0.267361        -1.282331
 C         3.037282         1.045443        -0.754123
 O         1.847066         1.425388        -0.008522
 H        -0.267545        -1.083459         0.451100
 H        -0.403415         0.600539         0.224753
 H        -0.136227        -0.630273        -1.308467
 H         1.599382        -0.168948         2.080257
 H         2.121544        -1.731302         1.283729
 H         5.015942         0.758140         0.496107
 H         4.638942        -0.782766        -1.728218
 H         4.009111        -2.057353        -0.467645
 H         2.136297        -0.348630        -2.312218
 H         3.466848         1.863299        -1.353792
