19
Iteration:  3787
 C         0.118342        -0.390739        -0.177117
 C         1.570648         0.022682        -0.103067
 C         2.145454        -0.598315         1.212774
 O         3.540735        -0.238280         1.438024
 C         4.083282         0.135061         0.102022
 C         3.887031        -0.899709        -0.991120
 C         2.570435        -0.261134        -1.327349
 C         3.135224         1.096109        -0.708078
 O         1.851376         1.468964        -0.046336
 H        -0.102548        -0.993149         0.707819
 H        -0.497064         0.507390        -0.008490
 H        -0.131623        -0.946380        -1.037697
 H         1.633166        -0.382920         2.176758
 H         2.276979        -1.786734         1.063043
 H         5.089026         0.623021         0.389762
 H         4.632274        -0.938961        -1.781884
 H         3.977976        -1.877089        -0.554006
 H         2.076569        -0.365344        -2.288369
 H         3.607918         1.921633        -1.366400
