19
Iteration:   305charge 0 multiplicity 1
 C         0.106664        -0.302495        -0.335153
 C         1.548347        -0.081232        -0.183800
 C         2.219527        -1.142440         0.702764
 O         3.646717        -0.715026         1.130392
 C         4.132595         0.226988         0.184352
 C         3.949567        -0.335582        -1.214418
 C         2.556642         0.300831        -1.330502
 C         2.941302         1.312666        -0.124130
 O         1.807441         1.154662         0.598982
 H        -0.257195        -0.846014         0.538937
 H        -0.542016         0.676681        -0.201439
 H        -0.093862        -0.848197        -1.222941
 H         1.645099        -1.247140         1.623638
 H         2.356729        -2.164529         0.212554
 H         5.058019         0.546237         0.573371
 H         4.665224         0.233352        -1.964954
 H         4.030718        -1.420667        -1.349688
 H         2.152495         0.631290        -2.240866
 H         3.227154         2.333068        -0.346793
