19
Iteration:  4633
 C         0.084272        -0.394649        -0.159547
 C         1.564553         0.034229        -0.067070
 C         2.180172        -0.059163         1.340107
 O         3.510057         0.416218         1.312030
 C         4.048454         0.108936         0.131765
 C         3.835979        -1.255965        -0.379194
 C         2.539607        -0.663216        -1.092188
 C         3.219821         0.721432        -1.067005
 O         1.948838         1.340704        -0.536642
 H        -0.581430         0.482246        -0.613848
 H        -0.154432        -1.315743        -0.796593
 H        -0.400675        -0.792373         0.829131
 H         1.651435         0.526121         2.094244
 H         2.027750        -1.166668         1.780658
 H         5.137204         0.323839         0.050051
 H         4.699748        -1.408756        -1.010348
 H         3.733149        -2.047876         0.342360
 H         1.994248        -1.069939        -2.062752
 H         3.843123         1.174284        -1.856606
