19
Iteration:  2206
 C         0.091532        -0.312228        -0.303287
 C         1.513450        -0.027906        -0.036985
 C         2.144848        -0.743902         1.138744
 O         3.619747        -0.532170         1.222416
 C         4.120242         0.223574         0.152488
 C         4.083616        -0.693033        -1.048127
 C         2.538233        -0.133417        -1.229406
 C         3.040138         1.208550        -0.518450
 O         1.788087         1.338099         0.133131
 H        -0.439775         0.491130         0.206547
 H        -0.206534        -0.217346        -1.357211
 H        -0.249628        -1.230099        -0.098544
 H         1.743283        -0.286686         2.071457
 H         1.936582        -1.777522         1.101294
 H         5.142530         0.716115         0.466539
 H         4.613667        -0.327345        -2.012914
 H         4.178745        -1.834129        -0.962641
 H         2.144789        -0.189453        -2.293018
 H         3.191558         2.181960        -0.997915
