19
Iteration:  1130charge 0 multiplicity 1
 C         0.166328        -0.358826        -0.436715
 C         1.557837        -0.110506        -0.116522
 C         2.262780        -1.024916         0.978144
 O         3.593098        -0.424595         1.265235
 C         4.093247         0.216827         0.121681
 C         3.815422        -0.673964        -1.187389
 C         2.559729         0.155235        -1.255656
 C         3.021429         1.331939        -0.376082
 O         1.849406         1.276772         0.444001
 H        -0.384182         0.572362        -0.176597
 H        -0.166955        -0.608673        -1.469651
 H        -0.335095        -1.113103         0.163951
 H         1.876131        -1.073085         1.937429
 H         2.448728        -2.101213         0.572854
 H         5.114187         0.581034         0.357978
 H         4.612959        -0.361345        -1.965858
 H         3.756004        -1.865157        -1.048090
 H         1.880518         0.274332        -2.172209
 H         3.361371         2.318747        -0.596150
