19
Iteration:   656
 C         0.211993        -0.340556        -0.476421
 C         1.639832        -0.070333        -0.079699
 C         2.246383        -1.034989         0.897455
 O         3.531064        -0.461165         1.318753
 C         4.088286         0.179307         0.106137
 C         3.840733        -0.598352        -1.265543
 C         2.540751         0.248557        -1.308907
 C         3.010718         1.288098        -0.300755
 O         1.839481         1.211162         0.563585
 H        -0.141414        -1.243023        -0.017719
 H        -0.365821         0.422782        -0.048875
 H        -0.010585        -0.512234        -1.537587
 H         1.700082        -1.224237         2.000791
 H         2.400561        -2.120994         0.490534
 H         5.126646         0.493805         0.444803
 H         4.472562        -0.175885        -1.998737
 H         3.639750        -1.670963        -1.470549
 H         1.995267         0.388104        -2.443610
 H         3.274344         2.268563        -0.713771
