19
Iteration:  3496
 C         0.072653        -0.342923        -0.362715
 C         1.562110        -0.099057         0.000374
 C         2.270032        -0.639635         1.330845
 O         3.486137        -0.040890         1.353112
 C         4.126042         0.159117         0.121085
 C         3.892270        -1.022693        -1.016838
 C         2.535047        -0.195447        -1.320901
 C         3.068945         1.099609        -0.692107
 O         1.921142         1.374746         0.100177
 H        -0.457170        -0.953992         0.443693
 H        -0.370252         0.744873        -0.668773
 H        -0.089926        -0.826166        -1.338396
 H         1.629716        -0.192460         2.148160
 H         2.392678        -1.760096         1.393518
 H         5.111885         0.556366         0.278161
 H         4.490854        -0.935298        -1.944187
 H         3.961793        -2.174901        -0.882342
 H         2.016167        -0.378081        -2.274424
 H         3.437376         1.771198        -1.448486
