19
Iteration:   663charge 0 multiplicity 1
 C         0.164905        -0.357040        -0.454386
 C         1.607835        -0.080889        -0.062376
 C         2.271862        -1.030306         0.944487
 O         3.543042        -0.497573         1.289838
 C         4.035394         0.146289         0.115866
 C         3.876035        -0.582545        -1.274122
 C         2.560770         0.271359        -1.308140
 C         3.039684         1.279869        -0.306142
 O         1.852702         1.226909         0.516067
 H        -0.062793        -1.406942        -0.161435
 H        -0.615023         0.463117        -0.065647
 H        -0.011258        -0.379504        -1.513151
 H         1.807714        -0.940088         1.838230
 H         2.250348        -2.012209         0.521022
 H         4.943308         0.599021         0.449565
 H         4.678993        -0.224689        -2.011990
 H         3.874459        -1.634824        -1.448734
 H         1.909950         0.427426        -2.070429
 H         3.180353         2.360437        -0.606971
