19
Iteration:  2657
 C         0.095768        -0.388095        -0.259799
 C         1.557109        -0.139387        -0.125734
 C         2.241059        -0.868214         1.065830
 O         3.462586        -0.284906         1.265100
 C         4.088006         0.151875         0.118158
 C         3.889877        -0.736249        -1.153870
 C         2.585171         0.114702        -1.358619
 C         3.131491         1.222346        -0.452687
 O         1.881218         1.301823         0.311561
 H        -0.066423        -0.703087        -1.262109
 H        -0.251746        -1.178763         0.345809
 H        -0.599402         0.453478        -0.001732
 H         1.615827        -0.792431         1.983099
 H         2.231631        -1.938800         0.905380
 H         5.202470         0.185279         0.346484
 H         4.575157        -0.408371        -1.907964
 H         4.047220        -1.743040        -0.931426
 H         1.979648         0.085079        -2.329103
 H         3.664837         2.180306        -0.701296
