19
Iteration:    58charge 0 multiplicity 1
 C         0.142423        -0.304927        -0.293263
 C         1.660720        -0.107372        -0.077911
 C         2.235018        -1.231340         0.758763
 O         3.630894        -0.822162         1.131354
 C         4.091943         0.249560         0.167562
 C         3.948181        -0.262756        -1.326198
 C         2.569778         0.367229        -1.345719
 C         2.882733         1.434272        -0.148079
 O         1.767339         1.165193         0.581061
 H        -0.365543        -0.192393         0.625801
 H        -0.201717         0.341223        -0.965322
 H        -0.133085        -1.421184        -0.659614
 H         1.658292        -1.357960         1.727892
 H         2.265799        -2.170131         0.249393
 H         5.152197         0.487299         0.362751
 H         4.640197         0.139208        -2.026377
 H         4.071048        -1.420361        -1.415061
 H         2.062262         0.558393        -2.336841
 H         3.073200         2.486237        -0.101085
