19
Iteration:   768
 C         0.112890        -0.304878        -0.459125
 C         1.579681        -0.089580        -0.058907
 C         2.313899        -1.109656         0.905630
 O         3.556294        -0.399141         1.278354
 C         4.034070         0.236201         0.118137
 C         3.908828        -0.673034        -1.194755
 C         2.562194         0.162238        -1.267236
 C         3.034950         1.339532        -0.353679
 O         1.865596         1.245756         0.514901
 H         0.086355        -0.604618        -1.529713
 H        -0.151272        -1.164987        -0.030306
 H        -0.574865         0.520759        -0.299643
 H         1.667237        -1.292027         1.869053
 H         2.330183        -2.130277         0.440038
 H         5.060648         0.534301         0.344481
 H         4.444958        -0.456759        -2.032456
 H         3.600559        -1.721424        -1.108725
 H         1.939641         0.387546        -2.327579
 H         3.256414         2.341357        -0.609530
