19
Iteration:   382
 C         0.171431        -0.391719        -0.459869
 C         1.650187        -0.123517        -0.069222
 C         2.314422        -1.218614         0.780250
 O         3.563997        -0.649955         1.205245
 C         4.095909         0.194865         0.051380
 C         3.779705        -0.402287        -1.249806
 C         2.534215         0.415487        -1.283958
 C         3.030886         1.446325        -0.157471
 O         1.812368         1.198101         0.620388
 H        -0.087726        -1.429488        -0.420856
 H        -0.601478         0.264062         0.151726
 H        -0.044293        -0.193918        -1.520600
 H         1.654601        -1.074156         1.673956
 H         2.337664        -2.339549         0.444674
 H         5.066049         0.320487         0.427359
 H         4.564485        -0.248361        -2.089427
 H         3.651677        -1.498160        -1.211355
 H         1.990078         0.641513        -2.152829
 H         3.491058         2.422717        -0.162462
