19
Iteration:    89
 C         0.100394        -0.525139        -0.375813
 C         1.567013        -0.064675        -0.097575
 C         2.208465        -1.026480         0.847454
 O         3.626483        -0.826367         0.984351
 C         4.150389         0.230645         0.173616
 C         3.919021        -0.184227        -1.324186
 C         2.475548         0.335784        -1.238821
 C         3.093816         1.221747        -0.053473
 O         1.793932         1.272598         0.575338
 H        -0.405866        -0.707891         0.547619
 H        -0.407595         0.235576        -1.013615
 H        -0.036452        -1.439076        -1.103348
 H         1.716099        -0.866204         1.841060
 H         1.953418        -2.138252         0.551248
 H         5.198762         0.400757         0.409036
 H         4.440646         0.387562        -2.017887
 H         4.146301        -1.221136        -1.418469
 H         1.982624         0.830158        -2.060579
 H         3.475089         2.201647        -0.185354
