19
Iteration:  1170charge 0 multiplicity 1
 C         0.073814        -0.279505        -0.303605
 C         1.613862        -0.132510        -0.086582
 C         2.234676        -1.036041         0.910167
 O         3.539337        -0.444658         1.266878
 C         4.073262         0.254133         0.176961
 C         3.996777        -0.594050        -1.180579
 C         2.538143         0.055877        -1.302371
 C         3.023231         1.234848        -0.396555
 O         1.830771         1.282112         0.373667
 H        -0.334666         0.666876         0.168127
 H        -0.232925        -0.460934        -1.289390
 H        -0.236701        -1.030919         0.462091
 H         1.570785        -1.253300         1.790828
 H         2.377395        -2.007234         0.446868
 H         5.050310         0.596540         0.465268
 H         4.560776        -0.065795        -1.956454
 H         4.052022        -1.618772        -1.298432
 H         2.207613         0.212360        -2.403412
 H         3.380764         2.212423        -0.763581
