19
Iteration:   406charge 0 multiplicity 1
 C         0.162008        -0.376005        -0.456641
 C         1.608612        -0.070873        -0.089822
 C         2.292056        -1.101334         0.741187
 O         3.590583        -0.567336         1.235532
 C         4.057844         0.200243         0.135485
 C         3.773635        -0.447449        -1.294846
 C         2.569911         0.391046        -1.295971
 C         2.980945         1.274648        -0.182169
 O         1.865882         1.150693         0.662701
 H         0.093760        -1.417163        -0.748530
 H        -0.419434        -0.204218         0.434719
 H        -0.337056         0.161722        -1.370311
 H         1.751321        -1.245449         1.611214
 H         2.384820        -2.101748         0.097698
 H         5.090969         0.369286         0.507768
 H         4.562261        -0.113457        -2.008836
 H         3.711501        -1.584363        -1.453647
 H         2.096433         0.767402        -2.114400
 H         3.385952         2.273175        -0.323433
