19
Iteration:  1333
 C         0.101730        -0.409600        -0.236686
 C         1.547997        -0.119410        -0.068415
 C         2.181093        -0.889311         1.058697
 O         3.525218        -0.504549         1.291929
 C         4.135893         0.145805         0.217481
 C         4.016777        -0.624399        -1.242295
 C         2.604147         0.099135        -1.330094
 C         3.056643         1.255098        -0.453676
 O         1.790946         1.393764         0.208603
 H        -0.220129        -1.484617        -0.129101
 H        -0.349225         0.152673         0.593038
 H        -0.367938        -0.082631        -1.228284
 H         1.444283        -0.553177         1.863822
 H         1.983681        -1.916384         0.916140
 H         5.092559         0.414004         0.648114
 H         4.778416        -0.198703        -1.933434
 H         4.070380        -1.699374        -1.231842
 H         2.218944         0.119412        -2.248883
 H         3.522133         2.219840        -0.925425
