19
Iteration:  2641
 C         0.071869        -0.458315        -0.221396
 C         1.578382        -0.037352        -0.145364
 C         2.223809        -0.927422         0.903056
 O         3.472201        -0.275267         1.318477
 C         4.192058         0.129229         0.144249
 C         3.859242        -0.774677        -1.088829
 C         2.583301         0.057870        -1.318422
 C         3.094706         1.289017        -0.464760
 O         1.889728         1.342150         0.302634
 H        -0.372275        -0.727677        -1.230949
 H        -0.092546        -1.184943         0.637040
 H        -0.333611         0.491344         0.031394
 H         1.483105        -0.878851         1.746587
 H         2.418402        -2.021835         0.459446
 H         5.157417         0.555056         0.393703
 H         4.625304        -0.679235        -1.914926
 H         3.462687        -1.864910        -0.968358
 H         2.255866         0.320531        -2.278857
 H         3.329799         2.273968        -0.838645
