19
Iteration:  3344charge 0 multiplicity 1
 C         0.144125        -0.392105        -0.226840
 C         1.574911        -0.042853        -0.110929
 C         2.187329        -0.748513         1.214221
 O         3.536658        -0.190115         1.380297
 C         4.067734         0.159653         0.150205
 C         3.831703        -0.894675        -1.122171
 C         2.571762        -0.092752        -1.360674
 C         3.168471         1.136090        -0.629310
 O         1.865957         1.387618         0.094628
 H        -0.291147        -0.647131        -1.181379
 H        -0.071757        -1.319211         0.335496
 H        -0.395865         0.346177         0.232639
 H         1.535896        -0.545687         2.079956
 H         2.169788        -1.895419         1.178684
 H         4.948462         0.716989         0.247106
 H         4.671191        -0.557865        -1.690545
 H         3.620517        -1.934204        -0.759098
 H         2.126967        -0.146433        -2.346610
 H         3.657446         2.022026        -1.002044
