19
Iteration:   242charge 0 multiplicity 1
 C         0.141007        -0.437991        -0.439901
 C         1.592913        -0.105714        -0.124168
 C         2.238220        -1.108747         0.785431
 O         3.619433        -0.750811         1.068682
 C         4.143207         0.142431         0.145864
 C         3.886099        -0.303407        -1.295683
 C         2.491269         0.436654        -1.226261
 C         3.015033         1.384559        -0.091903
 O         1.808257         1.191335         0.637591
 H        -0.563299        -0.194313         0.301716
 H        -0.077503         0.027845        -1.385190
 H        -0.050339        -1.567206        -0.558938
 H         1.688313        -0.901391         1.661778
 H         2.096270        -2.134643         0.526841
 H         5.197691         0.381874         0.428993
 H         4.633290         0.044388        -1.956002
 H         3.885033        -1.383496        -1.419301
 H         1.994885         0.822247        -2.099916
 H         3.225364         2.438542        -0.158109
