19
Iteration:  2290
 C         0.139089        -0.352032        -0.249790
 C         1.555070        -0.083865        -0.069829
 C         2.223118        -0.883559         1.064144
 O         3.501113        -0.326105         1.402833
 C         4.075843         0.178480         0.146703
 C         3.873221        -0.727719        -1.014400
 C         2.535812        -0.011514        -1.375785
 C         3.117687         1.257470        -0.607438
 O         1.894274         1.359855         0.146783
 H        -0.274580        -0.957921         0.616960
 H        -0.315865         0.629864        -0.511767
 H         0.068473        -1.156188        -1.083047
 H         1.584955        -0.871368         2.047333
 H         2.395002        -1.946095         0.640368
 H         5.064409         0.502377         0.365306
 H         4.606402        -0.766425        -1.756865
 H         3.685487        -1.782668        -0.681286
 H         2.194089        -0.200016        -2.391104
 H         3.390022         2.179181        -1.088282
