19
Iteration:  2841
 C         0.099968        -0.336929        -0.259806
 C         1.535197        -0.065930        -0.100604
 C         2.102957        -0.748310         1.164298
 O         3.591321        -0.498566         1.299139
 C         4.169198         0.189944         0.153172
 C         3.989479        -0.609804        -1.167393
 C         2.524579        -0.032956        -1.286912
 C         3.098859         1.114879        -0.546507
 O         1.808659         1.338996         0.189200
 H        -0.230448        -0.041316        -1.252444
 H         0.195362        -1.435571        -0.280016
 H        -0.604603        -0.050582         0.641159
 H         1.556868        -0.460350         2.084397
 H         1.983395        -1.755827         1.021537
 H         5.095175         0.765491         0.486722
 H         4.567142        -0.290957        -2.048027
 H         4.162315        -1.753614        -1.205112
 H         2.015903         0.037039        -2.266589
 H         3.579613         2.092700        -0.797793
