19
Iteration:  2066
 C         0.007742        -0.412584        -0.287490
 C         1.533735        -0.067451        -0.078229
 C         2.154020        -0.735779         1.192583
 O         3.604922        -0.456732         1.308080
 C         4.122938         0.168598         0.156354
 C         4.045073        -0.707248        -1.057711
 C         2.553008        -0.072941        -1.325032
 C         3.074751         1.183611        -0.559467
 O         1.840282         1.408036         0.121250
 H        -0.423354        -0.451709         0.720788
 H        -0.479220         0.459442        -0.818908
 H         0.096090        -1.313864        -0.893969
 H         1.498835        -0.333187         1.953490
 H         1.778441        -1.796856         1.089657
 H         5.101858         0.528137         0.463436
 H         4.720090        -0.255559        -1.826658
 H         4.132896        -1.720871        -1.034696
 H         2.067209        -0.036626        -2.288396
 H         3.455271         2.111410        -1.054264
