19
Iteration:  1461
 C         0.059168        -0.372725        -0.199679
 C         1.576443        -0.031449        -0.133756
 C         2.136761        -0.889943         1.082688
 O         3.562249        -0.538356         1.254722
 C         4.129244         0.229195         0.200349
 C         4.039931        -0.649219        -1.069332
 C         2.627980        -0.033209        -1.276035
 C         3.017771         1.231682        -0.554723
 O         1.786359         1.415111         0.159384
 H        -0.187142        -0.527708        -1.197078
 H        -0.386971        -1.228784         0.401191
 H        -0.383809         0.556443         0.198034
 H         1.571574        -0.782977         1.942505
 H         2.010090        -1.942972         0.700678
 H         5.131708         0.666360         0.459878
 H         4.712817        -0.277102        -1.864410
 H         4.178421        -1.761881        -0.929647
 H         2.154810         0.072003        -2.375996
 H         3.535590         2.073529        -0.884338
