19
Iteration:  4821
 C         0.071604        -0.261771        -0.102602
 C         1.571692         0.010608        -0.104038
 C         2.093591         0.092615         1.349617
 O         3.588915         0.446231         1.425064
 C         4.116248         0.182994         0.118267
 C         3.858100        -1.369821        -0.244393
 C         2.591642        -0.867365        -1.057020
 C         3.136626         0.739264        -1.142732
 O         1.886580         1.227311        -0.736904
 H        -0.284658         0.103201        -1.172784
 H        -0.260893        -1.378062         0.015556
 H        -0.381589         0.501581         0.589551
 H         1.581216         0.800207         2.008428
 H         2.002412        -0.860090         1.847949
 H         5.175779         0.530706         0.064734
 H         4.654780        -1.666019        -0.982166
 H         3.833478        -2.143205         0.512895
 H         2.183733        -1.384640        -2.020233
 H         3.579834         1.108867        -2.036555
