19
Iteration:  1006
 C         0.035134        -0.282895        -0.375751
 C         1.602456        -0.128520        -0.084999
 C         2.298005        -1.054329         0.862382
 O         3.576734        -0.382361         1.294414
 C         4.119643         0.200400         0.152414
 C         3.900560        -0.594133        -1.207652
 C         2.494916         0.091133        -1.370674
 C         2.979503         1.259274        -0.318803
 O         1.889664         1.253609         0.517316
 H        -0.065505        -0.019847        -1.429866
 H        -0.368530        -1.257287        -0.355641
 H        -0.611055         0.444128         0.131062
 H         1.750092        -1.292762         1.687921
 H         2.546455        -2.045171         0.325383
 H         5.118304         0.574382         0.387123
 H         4.649625        -0.106131        -1.974716
 H         3.971662        -1.724890        -1.091105
 H         2.117836        -0.014746        -2.377941
 H         3.230271         2.298017        -0.484865
