19
Iteration:  3116charge 0 multiplicity 1
 C         0.127521        -0.374347        -0.316200
 C         1.555775        -0.047155        -0.111395
 C         2.272522        -0.841909         1.020326
 O         3.619144        -0.337062         1.326212
 C         4.116506         0.150875         0.110932
 C         3.834715        -0.872800        -1.026319
 C         2.535453         0.018425        -1.235545
 C         3.077663         1.224733        -0.499719
 O         1.814978         1.432754         0.176750
 H        -0.465901         0.404816         0.248739
 H        -0.204656        -0.525548        -1.397421
 H        -0.171787        -1.169173         0.330680
 H         1.597853        -0.829589         1.891145
 H         2.319166        -1.884948         0.772928
 H         5.022492         0.633800         0.297893
 H         4.607812        -0.837740        -1.789671
 H         3.779848        -1.923092        -0.775307
 H         1.888841         0.162396        -2.129910
 H         3.406130         2.039815        -1.128567
