19
Iteration:  3147charge 0 multiplicity 1
 C         0.123067        -0.257501        -0.378805
 C         1.563005        -0.120349        -0.052040
 C         2.233673        -0.886642         1.170672
 O         3.555185        -0.223255         1.394419
 C         4.093565         0.177441         0.073385
 C         3.867918        -0.807771        -1.163389
 C         2.513926        -0.072288        -1.358898
 C         3.034563         1.203812        -0.601953
 O         1.937452         1.295503         0.310824
 H        -0.549761         0.310158         0.334652
 H        -0.255148         0.148989        -1.339573
 H        -0.138027        -1.312835        -0.348202
 H         1.668392        -0.593911         2.065046
 H         2.383533        -1.925768         1.041485
 H         4.978223         0.646900         0.422722
 H         4.724935        -0.624007        -1.823246
 H         3.913162        -1.921936        -0.919543
 H         1.835992        -0.116324        -2.184666
 H         3.367287         2.083289        -1.122976
