19
Iteration:  1879
 C         0.139582        -0.334653        -0.445787
 C         1.603752        -0.070854         0.041433
 C         2.247360        -0.881556         1.097954
 O         3.499376        -0.222444         1.327146
 C         4.152473         0.267642         0.110616
 C         3.854963        -0.890779        -1.056848
 C         2.556812        -0.053994        -1.351829
 C         3.046425         1.190438        -0.551649
 O         1.865843         1.347458         0.285101
 H        -0.620629        -0.441089         0.433863
 H        -0.406626         0.546704        -0.791619
 H        -0.071996        -1.125784        -1.134219
 H         1.617657        -1.062543         2.109558
 H         2.439665        -1.843457         0.756168
 H         5.268267         0.413312         0.349397
 H         4.579936        -0.795481        -1.897105
 H         3.830754        -1.828244        -0.621538
 H         2.082904        -0.049961        -2.329792
 H         3.185824         2.168165        -1.118861
