19
Iteration:  1786charge 0 multiplicity 1
 C         0.123432        -0.374551        -0.297249
 C         1.579288        -0.030212        -0.079586
 C         2.266165        -0.892381         1.048700
 O         3.540604        -0.325612         1.370402
 C         4.098019         0.224616         0.160136
 C         3.856247        -0.826980        -1.088584
 C         2.567732        -0.013123        -1.332110
 C         3.071429         1.226187        -0.537946
 O         1.843055         1.370105         0.213785
 H        -0.558159         0.340278         0.062035
 H        -0.094353        -0.369607        -1.409918
 H        -0.098841        -1.402290         0.052579
 H         1.724209        -0.830385         1.923433
 H         2.150937        -1.938861         0.653288
 H         5.110014         0.527902         0.409783
 H         4.577770        -0.569028        -1.809193
 H         3.890188        -1.906019        -0.820112
 H         1.910247         0.234965        -2.232564
 H         3.466422         2.132400        -0.979254
