19
Iteration:  2603
 C         0.136735        -0.339785        -0.292137
 C         1.565641        -0.099425        -0.072512
 C         2.153319        -0.924953         1.083781
 O         3.596919        -0.483594         1.287275
 C         4.101414         0.187492         0.165683
 C         3.953667        -0.643736        -1.179504
 C         2.587593         0.004707        -1.220799
 C         3.038888         1.242339        -0.514976
 O         1.790400         1.408119         0.223666
 H        -0.157855        -0.484620        -1.324153
 H        -0.413777        -1.088263         0.272479
 H        -0.328310         0.666881         0.037932
 H         1.741290        -0.770688         2.106633
 H         2.130437        -1.968018         0.792015
 H         5.182279         0.363872         0.449793
 H         4.537916        -0.322647        -2.044862
 H         4.112338        -1.682668        -1.104841
 H         2.074518        -0.061121        -2.236280
 H         3.440079         2.123398        -1.081999
