19
Iteration:  4438charge 0 multiplicity 1
 C         0.064327        -0.305492        -0.237405
 C         1.569372        -0.121976        -0.045937
 C         2.205931        -0.277588         1.381909
 O         3.507749         0.331100         1.369119
 C         4.104602         0.184211         0.126154
 C         3.876067        -1.221870        -0.648046
 C         2.565510        -0.590597        -1.091628
 C         3.112617         0.805071        -0.938477
 O         1.950741         1.394348        -0.397787
 H        -0.439820         0.596117        -0.573662
 H        -0.117268        -1.065431        -0.910813
 H        -0.400059        -0.529731         0.680893
 H         1.492244         0.307728         2.070093
 H         2.018954        -1.361124         1.586086
 H         5.088279         0.652545         0.261352
 H         4.550579        -1.276855        -1.608622
 H         3.817627        -2.164580        -0.075566
 H         2.058458        -0.913527        -2.052912
 H         3.582885         1.196068        -1.820727
