19
Iteration:  1565
 C         0.101158        -0.382264        -0.214472
 C         1.555874        -0.068114        -0.119498
 C         2.120451        -0.796787         1.133918
 O         3.527622        -0.456125         1.311448
 C         4.058180         0.193490         0.171406
 C         3.955815        -0.675150        -1.107104
 C         2.644394         0.001785        -1.332720
 C         3.110038         1.217659        -0.530052
 O         1.834425         1.330680         0.135712
 H        -0.445101         0.521270         0.210920
 H         0.036615        -0.648697        -1.226304
 H        -0.095221        -1.185911         0.433846
 H         1.575295        -0.522908         2.115892
 H         1.947109        -1.845313         0.860810
 H         5.081535         0.492164         0.245551
 H         4.698309        -0.297787        -1.797854
 H         4.191086        -1.727140        -1.025771
 H         2.056556        -0.187400        -2.364014
 H         3.570769         2.208647        -0.954576
