19
Iteration:  4154
 C         0.063855        -0.314367        -0.150839
 C         1.564521        -0.021098        -0.066386
 C         2.175044        -0.509119         1.186586
 O         3.594192         0.034609         1.467538
 C         4.188691         0.193887         0.118157
 C         3.842611        -1.072776        -0.711940
 C         2.556506        -0.435924        -1.291359
 C         3.102650         0.967171        -0.915003
 O         1.853341         1.423172        -0.203549
 H        -0.167473        -1.332566        -0.615445
 H        -0.473117        -0.205475         0.808727
 H        -0.374643         0.514977        -0.902291
 H         1.663525        -0.215608         2.107900
 H         2.263050        -1.648545         1.180270
 H         5.188326         0.484456         0.325320
 H         4.463434        -1.007739        -1.600679
 H         3.763437        -1.924721        -0.069784
 H         2.188195        -0.741886        -2.279878
 H         3.365296         1.763091        -1.546878
