19
Iteration:  1354
 C         0.117298        -0.413779        -0.349684
 C         1.593554        -0.015141        -0.089497
 C         2.183434        -0.869252         1.107020
 O         3.607714        -0.464317         1.261824
 C         4.122977         0.215245         0.148940
 C         3.855542        -0.702472        -1.114662
 C         2.555444         0.077478        -1.328107
 C         3.057067         1.213855        -0.424620
 O         1.824220         1.331584         0.261704
 H         0.041522        -1.344675        -0.878499
 H        -0.519731        -0.455078         0.530629
 H        -0.394580         0.218468        -1.125156
 H         1.584205        -0.657767         2.016571
 H         2.066363        -1.942644         0.864342
 H         5.110071         0.634846         0.322302
 H         4.648626        -0.413747        -1.825009
 H         3.988438        -1.749860        -0.918932
 H         2.165878         0.217225        -2.333318
 H         3.538854         2.233341        -0.745949
