19
Iteration:  3965charge 0 multiplicity 1
 C         0.099537        -0.369444        -0.330541
 C         1.552813        -0.017894        -0.022616
 C         2.215892        -0.573303         1.238346
 O         3.574568        -0.107702         1.317385
 C         4.172184         0.207436         0.074540
 C         3.870679        -1.037400        -0.868628
 C         2.511177        -0.321575        -1.167723
 C         3.101035         1.037142        -0.709718
 O         1.853422         1.469961        -0.057148
 H        -0.197476        -0.193581        -1.379898
 H        -0.169224        -1.351010         0.166439
 H        -0.498291         0.386303         0.282019
 H         1.784494        -0.404031         2.249753
 H         2.199404        -1.629325         0.998763
 H         5.161243         0.594913         0.279511
 H         4.395757        -0.928023        -1.818938
 H         3.786740        -1.952919        -0.359708
 H         1.940357        -0.528202        -2.097213
 H         3.436429         1.811724        -1.383512
