19
Iteration:  1186
 C         0.088993        -0.335567        -0.169287
 C         1.544549        -0.066443        -0.094752
 C         2.228077        -1.036068         0.959867
 O         3.532499        -0.607360         1.230498
 C         4.135658         0.195364         0.177344
 C         3.970408        -0.518877        -1.147719
 C         2.652331         0.134111        -1.331171
 C         3.006287         1.318699        -0.466384
 O         1.768708         1.320907         0.284884
 H        -0.443611         0.551273         0.062171
 H        -0.080082        -0.460762        -1.306728
 H        -0.246533        -1.218161         0.351892
 H         1.754660        -0.941356         1.918939
 H         2.153747        -2.116109         0.609709
 H         5.140519         0.549445         0.532458
 H         4.778365        -0.211048        -1.854518
 H         4.169602        -1.661483        -0.943574
 H         2.062691         0.158193        -2.306329
 H         3.335351         2.322309        -0.771641
