19
Iteration:  2272charge 0 multiplicity 1
 C         0.083248        -0.443483        -0.300493
 C         1.635197         0.002855        -0.114963
 C         2.243127        -0.887318         0.958927
 O         3.492477        -0.215191         1.319218
 C         4.078934         0.201953         0.135984
 C         3.817644        -0.924451        -0.978590
 C         2.612773        -0.012530        -1.325293
 C         3.070401         1.226036        -0.523314
 O         1.882050         1.390924         0.253006
 H        -0.328061        -0.592993         0.684093
 H        -0.483131         0.377644        -0.775561
 H        -0.038371        -1.267942        -0.900591
 H         1.764283        -0.771573         1.969014
 H         2.536949        -1.891706         0.740061
 H         5.174444         0.532261         0.351867
 H         4.561058        -0.812200        -1.811955
 H         3.672111        -2.020015        -0.825455
 H         2.030531         0.226619        -2.260395
 H         3.583669         2.149312        -0.879647
