19
Iteration:  2442
 C         0.033683        -0.281653        -0.330593
 C         1.603301        -0.094320        -0.065321
 C         2.214753        -0.838248         1.214361
 O         3.598915        -0.463382         1.259446
 C         4.097230         0.232397         0.117878
 C         3.990601        -0.727528        -1.086541
 C         2.530430        -0.090564        -1.252041
 C         3.027042         1.182323        -0.539833
 O         1.803567         1.423645         0.174398
 H        -0.673255         0.014982         0.475143
 H        -0.073074         0.282575        -1.274772
 H         0.057657        -1.311067        -0.668104
 H         1.742427        -0.620351         2.168567
 H         2.207234        -1.962041         1.060500
 H         5.012141         0.618060         0.435715
 H         4.655792        -0.330947        -1.976861
 H         4.122510        -1.856258        -1.059930
 H         2.024168        -0.185181        -2.183011
 H         3.481862         2.086134        -0.939810
