19
Iteration:  3105charge 0 multiplicity 1
 C         0.084759        -0.430751        -0.198757
 C         1.597136         0.009002        -0.097876
 C         2.170961        -0.807634         1.024934
 O         3.561921        -0.408550         1.324345
 C         4.167991         0.220403         0.170884
 C         3.963601        -0.862306        -1.069482
 C         2.504783        -0.016864        -1.377498
 C         3.107404         1.191592        -0.555776
 O         1.798043         1.465449         0.220141
 H        -0.500072         0.505699         0.073014
 H        -0.266382        -0.707129        -1.245236
 H        -0.039118        -1.327480         0.355951
 H         1.613960        -0.549586         1.950123
 H         2.189021        -1.863076         0.805659
 H         5.175398         0.464070         0.330833
 H         4.578691        -0.745867        -1.944572
 H         3.722845        -1.862896        -0.772739
 H         2.101841         0.085032        -2.411815
 H         3.469378         2.144165        -0.935828
