19
Iteration:  1692charge 0 multiplicity 1
 C         0.102538        -0.426003        -0.246748
 C         1.585240        -0.020563        -0.089393
 C         2.187598        -0.740377         1.122398
 O         3.576510        -0.523917         1.326009
 C         4.065812         0.199051         0.208748
 C         3.958306        -0.701463        -1.067198
 C         2.536481        -0.110682        -1.369239
 C         3.094291         1.210271        -0.537264
 O         1.820071         1.455274         0.080471
 H        -0.258387        -0.718845         0.783557
 H        -0.512830         0.414918        -0.456539
 H         0.185765        -1.294064        -0.964761
 H         1.422593        -0.395814         1.989288
 H         2.041336        -1.851622         1.036418
 H         5.126529         0.593199         0.436610
 H         4.755338        -0.306879        -1.816902
 H         3.891376        -1.780178        -0.930831
 H         2.158602         0.001646        -2.288889
 H         3.444864         2.200803        -0.879974
