19
Iteration:  2880charge 0 multiplicity 1
 C         0.125714        -0.338882        -0.236964
 C         1.581030        -0.016810        -0.121774
 C         2.240258        -1.006705         0.980314
 O         3.547819        -0.279698         1.392032
 C         4.113395         0.208939         0.174411
 C         3.813778        -0.777840        -1.059029
 C         2.532632         0.059018        -1.396660
 C         3.056063         1.274530        -0.510547
 O         1.900654         1.304742         0.226114
 H        -0.237984        -0.530439        -1.246260
 H         0.027934        -1.350251         0.229669
 H        -0.523733         0.419246         0.141153
 H         1.668741        -1.189006         1.923242
 H         2.489219        -2.102069         0.519084
 H         5.146016         0.537433         0.365651
 H         4.534476        -0.882520        -1.895886
 H         3.650800        -1.857053        -0.856273
 H         2.050728         0.203754        -2.377846
 H         3.428388         2.222069        -0.971849
