19
Iteration:  1835charge 0 multiplicity 1
 C         0.164814        -0.352504        -0.235078
 C         1.557518        -0.106404        -0.099349
 C         2.127214        -0.748387         1.186768
 O         3.523025        -0.469036         1.299336
 C         4.101324         0.138631         0.177634
 C         4.020271        -0.629774        -1.138269
 C         2.645678        -0.066699        -1.314868
 C         3.033292         1.178751        -0.595928
 O         1.796240         1.364988         0.142858
 H        -0.477986         0.012901         0.638712
 H        -0.301061         0.217756        -1.042082
 H         0.002610        -1.420415        -0.404471
 H         1.655558        -0.375238         2.227784
 H         1.872167        -1.758764         1.103601
 H         5.037089         0.706663         0.476331
 H         4.753565        -0.412884        -1.955974
 H         3.855180        -1.673957        -0.995392
 H         2.124195        -0.026904        -2.272555
 H         3.533046         2.115719        -0.953534
