19
Iteration:  3947
 C         0.113845        -0.368578        -0.237835
 C         1.569388        -0.047107        -0.080882
 C         2.228509        -0.609674         1.221572
 O         3.552670         0.022994         1.429590
 C         4.061609         0.124948         0.116423
 C         3.788114        -1.048251        -0.916418
 C         2.577084        -0.256471        -1.338516
 C         3.098460         1.097654        -0.796437
 O         1.930199         1.370880         0.038643
 H         0.015142        -0.652552        -1.274383
 H        -0.144877        -1.165561         0.397301
 H        -0.611562         0.431074        -0.117418
 H         1.622034        -0.172676         2.021957
 H         2.279892        -1.733928         1.237686
 H         5.079083         0.458821         0.187458
 H         4.570136        -1.009393        -1.747979
 H         3.681076        -2.124870        -0.539237
 H         1.997224        -0.285905        -2.269409
 H         3.508608         1.945562        -1.331923
