19
Iteration:  2098charge 0 multiplicity 1
 C         0.159078        -0.359016        -0.387449
 C         1.665667        -0.149028        -0.053259
 C         2.124859        -0.688332         1.195848
 O         3.586078        -0.450023         1.297017
 C         4.070194         0.199775         0.099523
 C         4.005215        -0.762886        -1.084615
 C         2.533001        -0.068311        -1.251700
 C         3.026899         1.168833        -0.551720
 O         1.795185         1.411956         0.190505
 H        -0.474481        -0.710598         0.486754
 H        -0.224562         0.650268        -0.752380
 H        -0.007693        -1.186858        -1.078161
 H         1.676428        -0.170181         1.951609
 H         1.953164        -1.828635         1.391341
 H         5.051428         0.545883         0.532472
 H         4.545454        -0.373222        -2.013191
 H         4.053320        -1.851244        -1.022885
 H         1.919705         0.025187        -2.169001
 H         3.354400         2.101817        -1.053457
