19
Iteration:  1599
 C         0.066820        -0.353603        -0.232071
 C         1.544802        -0.108958        -0.130596
 C         2.141413        -0.816104         1.071649
 O         3.553814        -0.380283         1.296576
 C         4.094598         0.240252         0.133398
 C         4.003103        -0.727881        -1.072824
 C         2.615430        -0.071348        -1.291304
 C         3.060718         1.192148        -0.529219
 O         1.830407         1.359201         0.177389
 H        -0.428984         0.142984         0.607800
 H        -0.344672         0.241653        -1.057810
 H        -0.236061        -1.361914        -0.367366
 H         1.669482        -0.621932         2.082858
 H         2.187411        -1.884313         0.941023
 H         5.071505         0.485746         0.453728
 H         4.722226        -0.333711        -1.714318
 H         4.074859        -1.803497        -0.886204
 H         2.194965        -0.147040        -2.349047
 H         3.580960         2.054290        -1.012707
