19
Iteration:  4846charge 0 multiplicity 1
 C        -0.008869        -0.221563        -0.082489
 C         1.558656        -0.043471        -0.056682
 C         2.125808         0.029004         1.336912
 O         3.471451         0.445641         1.311076
 C         4.106566         0.228590         0.081341
 C         3.883372        -1.276021        -0.268621
 C         2.571597        -0.827865        -0.975359
 C         3.221780         0.655370        -1.086708
 O         1.985909         1.208085        -0.779212
 H        -0.511550         0.652850        -0.518776
 H        -0.283725        -1.176460        -0.631299
 H        -0.309407        -0.215393         1.016768
 H         1.506141         0.818633         1.901816
 H         2.088451        -0.870126         2.021516
 H         5.167880         0.449184         0.182807
 H         4.590891        -1.662779        -0.981534
 H         3.906127        -1.931412         0.549643
 H         2.196734        -1.324326        -1.860860
 H         3.789151         0.978157        -1.936286
