19
Iteration:  2236
 C         0.143693        -0.389150        -0.377438
 C         1.565040        -0.081871        -0.037749
 C         2.199471        -0.824429         1.205882
 O         3.574061        -0.388952         1.330600
 C         4.007963         0.157463         0.168921
 C         3.924407        -0.745657        -1.114302
 C         2.543734        -0.028489        -1.295719
 C         3.092279         1.261232        -0.575170
 O         1.904173         1.368300         0.174189
 H        -0.566413         0.106599         0.353088
 H        -0.099355         0.033874        -1.362000
 H        -0.012848        -1.490269        -0.347585
 H         1.561716        -0.374662         2.085800
 H         1.998604        -1.934746         1.270827
 H         4.984792         0.599172         0.284123
 H         4.528222        -0.351982        -1.839040
 H         3.842033        -1.838770        -1.237181
 H         2.015257        -0.112751        -2.270151
 H         3.346719         2.193420        -1.031782
