19
Iteration:  1397
 C         0.151511        -0.339209        -0.423922
 C         1.537287        -0.079166        -0.017074
 C         2.247663        -0.942943         1.050346
 O         3.524086        -0.262543         1.341613
 C         4.071496         0.186249         0.119536
 C         3.830044        -0.743451        -1.116526
 C         2.548301         0.031771        -1.327207
 C         3.119222         1.208934        -0.480060
 O         1.867829         1.294778         0.329033
 H         0.244051        -0.722260        -1.384277
 H        -0.267151        -1.103777         0.196401
 H        -0.505895         0.551629        -0.585548
 H         1.928903        -0.905194         2.054629
 H         2.516522        -2.026024         0.940862
 H         5.116986         0.486170         0.278692
 H         4.465252        -0.617684        -2.011153
 H         3.722211        -1.815867        -1.076204
 H         1.964703         0.160480        -2.382943
 H         3.438505         2.303623        -0.739295
