19
Iteration:  2495charge 0 multiplicity 1
 C         0.126455        -0.405536        -0.235903
 C         1.589915        -0.045320        -0.120807
 C         2.166277        -0.868751         1.037067
 O         3.453357        -0.320221         1.327756
 C         4.099189         0.231563         0.092866
 C         3.894502        -0.753612        -1.066869
 C         2.566114         0.062897        -1.352674
 C         3.128950         1.214678        -0.537392
 O         1.910115         1.274732         0.269810
 H        -0.370517         0.565748        -0.198414
 H        -0.061239        -0.854924        -1.206557
 H        -0.156587        -1.044131         0.654674
 H         1.645007        -0.860416         1.993676
 H         2.218129        -1.997204         0.831288
 H         5.112314         0.420818         0.339673
 H         4.698454        -0.404330        -1.807485
 H         3.582043        -1.771177        -1.022587
 H         2.117352        -0.064427        -2.353373
 H         3.505605         2.199575        -0.913112
