19
Iteration:  3525
 C         0.078477        -0.283691        -0.274440
 C         1.565491        -0.078351        -0.094019
 C         2.192329        -0.628002         1.242212
 O         3.588147        -0.168547         1.372080
 C         4.124048         0.219838         0.109078
 C         3.905083        -0.931124        -0.906720
 C         2.510784        -0.258207        -1.291819
 C         3.065994         1.068488        -0.697774
 O         1.862741         1.353859         0.013570
 H        -0.282665        -1.050875         0.402142
 H        -0.398102         0.616048         0.036789
 H        -0.026837        -0.642575        -1.294511
 H         1.613269        -0.000213         1.885919
 H         2.211359        -1.719144         1.292623
 H         5.162384         0.678509         0.299224
 H         4.510107        -0.846724        -1.821665
 H         4.085639        -1.892955        -0.545982
 H         2.104397        -0.447942        -2.283178
 H         3.462939         1.728010        -1.509820
