19
Iteration:   777
 C         0.162498        -0.382037        -0.488781
 C         1.612673        -0.108344        -0.028239
 C         2.298738        -1.065110         0.951701
 O         3.525139        -0.502817         1.279861
 C         4.130930         0.228453         0.140954
 C         3.814878        -0.647993        -1.169203
 C         2.526551         0.240795        -1.305216
 C         3.012138         1.362084        -0.397914
 O         1.863493         1.258239         0.478777
 H         0.089949        -0.308430        -1.557967
 H        -0.445592        -1.217679         0.004922
 H        -0.379610         0.580322        -0.170617
 H         1.797992        -1.204696         2.012802
 H         2.469023        -2.008071         0.451327
 H         5.124953         0.722321         0.364977
 H         4.476181        -0.449279        -1.974503
 H         3.751315        -1.738935        -0.959449
 H         1.885784         0.323419        -2.365921
 H         3.276058         2.363761        -0.698183
