19
Iteration:   292charge 0 multiplicity 1
 C         0.021069        -0.351377        -0.447747
 C         1.581992        -0.121322        -0.132656
 C         2.340816        -1.146569         0.720344
 O         3.584233        -0.635983         1.130063
 C         4.156129         0.177681         0.163108
 C         3.853003        -0.392348        -1.238610
 C         2.541063         0.355713        -1.203473
 C         3.077614         1.350006        -0.175057
 O         1.774030         1.179424         0.669112
 H        -0.401515        -0.817110         0.491772
 H        -0.398442         0.694914        -0.797974
 H        -0.240413        -1.012818        -1.205466
 H         1.774344        -1.498687         1.674582
 H         2.434384        -2.059657         0.014926
 H         5.159611         0.422705         0.370543
 H         4.489530         0.225511        -1.998362
 H         4.037837        -1.437043        -1.492642
 H         2.132979         0.591256        -2.224993
 H         3.381543         2.411753        -0.161215
