19
Iteration:  4376
 C         0.087448        -0.346081        -0.173871
 C         1.556108         0.048923        -0.102900
 C         2.123695        -0.286654         1.312094
 O         3.497944         0.169203         1.444250
 C         4.109824         0.126108         0.110085
 C         3.894234        -1.158830        -0.639698
 C         2.584979        -0.568457        -1.160490
 C         3.133287         0.924122        -0.973373
 O         1.931720         1.356364        -0.395628
 H        -0.200133        -1.302798        -0.773034
 H        -0.085229        -0.668263         0.963223
 H        -0.610969         0.518211        -0.381568
 H         1.645749         0.273197         2.101025
 H         2.164271        -1.289241         1.750552
 H         5.192621         0.508785         0.240352
 H         4.568869        -1.181543        -1.486000
 H         3.970664        -2.129815        -0.187629
 H         2.093499        -0.912908        -2.030167
 H         3.475584         1.612341        -1.785472
