19
Iteration:  3378charge 0 multiplicity 1
 C         0.093479        -0.306657        -0.397249
 C         1.553846        -0.017315        -0.053256
 C         2.242819        -0.801930         1.172117
 O         3.607621        -0.191833         1.306577
 C         4.161158         0.199623         0.066865
 C         3.843988        -0.925873        -0.899255
 C         2.580263        -0.169422        -1.236705
 C         3.056052         1.137374        -0.670390
 O         1.804580         1.431522         0.152345
 H        -0.246244         0.441363        -1.072154
 H         0.055219        -1.379932        -0.644831
 H        -0.451429        -0.223133         0.500559
 H         1.860357        -0.531008         2.183461
 H         2.184765        -1.911084         0.989717
 H         5.122614         0.571645         0.271804
 H         4.520066        -0.996959        -1.763084
 H         3.786719        -2.020074        -0.633517
 H         1.924358        -0.529013        -2.032895
 H         3.234869         2.055588        -1.256690
