19
Iteration:  3718charge 0 multiplicity 1
 C         0.092568        -0.312747        -0.296469
 C         1.564602        -0.090518        -0.050382
 C         2.293474        -0.753972         1.234166
 O         3.520930        -0.131009         1.356461
 C         4.138367         0.215139         0.076795
 C         3.861968        -0.899564        -0.872468
 C         2.503509        -0.227042        -1.183303
 C         3.095615         1.111745        -0.777857
 O         1.883565         1.455487        -0.032358
 H        -0.346851        -0.970317         0.517980
 H        -0.368543         0.541260         0.168831
 H        -0.260644        -0.659805        -1.352909
 H         1.599091        -0.701892         2.096407
 H         2.171610        -2.008892         0.951156
 H         5.212407         0.317936         0.329748
 H         4.490649        -0.908343        -1.689787
 H         3.777395        -1.952950        -0.563763
 H         2.046140        -0.575855        -2.146848
 H         3.571924         1.917391        -1.396199
