19
Iteration:  2289
 C         0.140542        -0.352222        -0.249987
 C         1.550919        -0.086309        -0.070256
 C         2.230096        -0.883432         1.068677
 O         3.499124        -0.321020         1.399192
 C         4.077517         0.180268         0.144567
 C         3.858926        -0.737778        -1.010641
 C         2.539257        -0.006379        -1.378620
 C         3.119355         1.259660        -0.607945
 O         1.896672         1.360351         0.150058
 H        -0.270476        -0.954739         0.609949
 H        -0.323936         0.613097        -0.516542
 H         0.068056        -1.185950        -1.079578
 H         1.590647        -0.908074         2.000018
 H         2.362283        -1.922019         0.614271
 H         5.054129         0.482884         0.357795
 H         4.652011        -0.766009        -1.760749
 H         3.698350        -1.779170        -0.650904
 H         2.209410        -0.207012        -2.378892
 H         3.389883         2.210307        -1.058038
