19
Iteration:  1531charge 0 multiplicity 1
 C         0.118969        -0.376256        -0.417711
 C         1.555434        -0.085721        -0.027062
 C         2.213318        -0.869662         1.042707
 O         3.611412        -0.328532         1.365023
 C         4.099896         0.206535         0.132445
 C         3.808847        -0.783210        -1.036091
 C         2.554021         0.023302        -1.309134
 C         3.107919         1.226963        -0.530508
 O         1.867118         1.368566         0.282709
 H        -0.486631         0.450851        -0.909557
 H         0.068226        -1.128977        -1.158543
 H        -0.443071        -0.872126         0.349684
 H         1.628482        -0.930687         1.985614
 H         2.367373        -1.911342         0.676329
 H         5.113524         0.638871         0.224384
 H         4.438699        -0.733462        -1.934516
 H         3.787158        -1.802229        -0.707159
 H         1.962341         0.024391        -2.352747
 H         3.374604         2.216448        -1.109079
