19
Iteration:  1462charge 0 multiplicity 1
 C         0.043092        -0.372269        -0.203559
 C         1.589456        -0.031734        -0.133248
 C         2.139574        -0.890323         1.087201
 O         3.568931        -0.530184         1.253665
 C         4.127100         0.220845         0.191692
 C         4.030919        -0.647375        -1.064329
 C         2.625973        -0.033166        -1.274383
 C         3.015738         1.226086        -0.551059
 O         1.783903         1.414378         0.161900
 H        -0.148791        -0.516706        -1.205537
 H        -0.359081        -1.231884         0.381045
 H        -0.395813         0.562036         0.202228
 H         1.555374        -0.776531         1.906881
 H         2.020476        -1.959560         0.711096
 H         5.128762         0.646590         0.500103
 H         4.726079        -0.267428        -1.851267
 H         4.188155        -1.735110        -0.943937
 H         2.150953         0.062560        -2.412577
 H         3.587929         2.091062        -0.893805
