19
Iteration:  3312charge 0 multiplicity 1
 C         0.025090        -0.369416        -0.151377
 C         1.533572        -0.018412        -0.074116
 C         2.130165        -0.704694         1.105198
 O         3.552797        -0.335094         1.315083
 C         4.179315         0.168826         0.194025
 C         3.924437        -0.756889        -1.049499
 C         2.546724        -0.156119        -1.290616
 C         3.114681         1.165942        -0.707656
 O         1.886181         1.356647         0.088438
 H        -0.220699        -1.002565        -0.989622
 H        -0.240692        -0.923317         0.788888
 H        -0.531057         0.500497        -0.217278
 H         1.662203        -0.289531         2.002925
 H         2.217946        -1.802783         0.943484
 H         5.007219         0.760989         0.431603
 H         4.805331        -0.688630        -1.658864
 H         3.996778        -1.851493        -0.883865
 H         2.197976        -0.314625        -2.311294
 H         3.596182         2.008061        -1.206497
