19
Iteration:  1821charge 0 multiplicity 1
 C         0.072147        -0.414233        -0.214000
 C         1.601746        -0.040994        -0.044923
 C         2.120191        -0.776322         1.161787
 O         3.498197        -0.486648         1.259203
 C         4.052985         0.232425         0.144881
 C         4.032015        -0.754507        -1.131771
 C         2.626045         0.009947        -1.345812
 C         3.096232         1.215167        -0.493465
 O         1.825670         1.381109         0.099059
 H        -0.384573         0.044159         0.635158
 H        -0.224750        -0.095951        -1.181809
 H        -0.034526        -1.513867         0.017719
 H         1.532884        -0.294135         1.938978
 H         1.994522        -1.901112         1.220248
 H         5.086505         0.526600         0.592130
 H         4.713700        -0.419718        -1.845590
 H         4.332706        -1.785826        -1.030266
 H         2.065907         0.079904        -2.393746
 H         3.479853         2.078924        -0.939527
