19
Iteration:  1387charge 0 multiplicity 1
 C         0.185227        -0.393096        -0.500330
 C         1.576636        -0.084986         0.022980
 C         2.250505        -0.946331         1.102379
 O         3.555133        -0.271761         1.304943
 C         4.081183         0.190545         0.074060
 C         3.776624        -0.793338        -1.100152
 C         2.524543         0.079773        -1.315724
 C         3.041158         1.245744        -0.461005
 O         1.906226         1.320252         0.345980
 H         0.238818        -0.918664        -1.437313
 H        -0.411308        -0.967231         0.182612
 H        -0.286402         0.630723        -0.449158
 H         1.605622        -0.941613         2.016265
 H         2.301141        -1.945367         0.623981
 H         5.092083         0.476429         0.367248
 H         4.592934        -0.545136        -1.815251
 H         3.752576        -1.830011        -0.851031
 H         2.030660         0.100119        -2.336213
 H         3.435585         2.278284        -0.900861
