19
Iteration:  2485charge 0 multiplicity 1
 C         0.143010        -0.337607        -0.302472
 C         1.573012        -0.079972        -0.073841
 C         2.204769        -0.877599         1.103690
 O         3.499584        -0.352732         1.262390
 C         4.050022         0.183861         0.113250
 C         3.928901        -0.769889        -1.130830
 C         2.637117        -0.037280        -1.313807
 C         3.045302         1.262714        -0.490138
 O         1.844901         1.338457         0.271188
 H        -0.252104         0.656586        -0.025109
 H        -0.192821        -0.695446        -1.287851
 H        -0.135351        -1.078883         0.485891
 H         1.636426        -0.465445         1.910775
 H         2.121124        -2.006250         0.973777
 H         4.990958         0.526842         0.403150
 H         4.628776        -0.599465        -2.048251
 H         4.159655        -1.863275        -0.982608
 H         2.119659         0.092786        -2.243042
 H         3.387757         2.219236        -0.920498
