19
Iteration:  4593
 C         0.077098        -0.281556        -0.114548
 C         1.558862         0.001205        -0.023198
 C         2.131564        -0.086690         1.381338
 O         3.493789         0.299054         1.348691
 C         4.074943         0.183085         0.115882
 C         3.880939        -1.229046        -0.437370
 C         2.620085        -0.708418        -1.154506
 C         3.201498         0.705392        -1.075832
 O         1.885061         1.310880        -0.542390
 H        -0.101700        -0.357477        -1.199423
 H        -0.287641        -1.235516         0.227985
 H        -0.348780         0.604637         0.253998
 H         1.530006         0.677255         2.012144
 H         2.091953        -1.073117         1.700732
 H         5.107849         0.656730         0.289457
 H         4.756430        -1.411401        -1.195068
 H         4.039267        -2.164685         0.123338
 H         1.929219        -1.098419        -1.937047
 H         3.644595         1.339657        -1.830561
