19
Iteration:  2099
 C         0.162586        -0.354366        -0.387160
 C         1.671263        -0.153831        -0.055566
 C         2.116086        -0.687430         1.182198
 O         3.587777        -0.443641         1.295543
 C         4.080707         0.195462         0.103092
 C         4.000570        -0.766789        -1.074355
 C         2.529117        -0.064435        -1.256001
 C         3.018959         1.164531        -0.553121
 O         1.797568         1.415182         0.196910
 H        -0.460924        -0.727739         0.461827
 H        -0.245821         0.636142        -0.773431
 H        -0.039370        -1.216812        -1.082703
 H         1.714761        -0.162783         1.972923
 H         1.994065        -1.844008         1.386702
 H         5.032482         0.536259         0.511455
 H         4.507202        -0.391480        -2.007391
 H         4.065485        -1.808158        -1.009628
 H         1.912054         0.015448        -2.139284
 H         3.369465         2.107066        -1.035775
