19
Iteration:  3769
 C         0.025195        -0.372796        -0.195652
 C         1.579779        -0.124842        -0.042562
 C         2.162488        -0.609795         1.230613
 O         3.554152        -0.169287         1.315953
 C         4.176702         0.170307         0.149666
 C         3.898495        -0.935289        -0.919304
 C         2.586331        -0.167100        -1.280880
 C         3.076253         1.133750        -0.736286
 O         1.915964         1.343744        -0.033000
 H        -0.462646        -0.934417         0.596935
 H        -0.585375         0.590702        -0.221180
 H        -0.081332        -0.711461        -1.243614
 H         1.555496        -0.052852         1.974423
 H         1.851668        -1.578817         1.455109
 H         5.192704         0.335914         0.435112
 H         4.491752        -0.568677        -1.932176
 H         3.872228        -2.071363        -0.869504
 H         2.041859        -0.160188        -2.227275
 H         3.509753         1.920970        -1.295080
