19
Iteration:  4698
 C        -0.040976        -0.294170        -0.118234
 C         1.514101         0.008541        -0.033786
 C         2.056930        -0.025982         1.371413
 O         3.460494         0.439832         1.343195
 C         4.147254         0.191890         0.076358
 C         3.987396        -1.353444        -0.473196
 C         2.639874        -0.760914        -0.999402
 C         3.236050         0.653192        -1.127388
 O         1.968380         1.326059        -0.589479
 H        -0.421080        -0.294911         0.977191
 H        -0.472208         0.510757        -0.737098
 H        -0.274547        -1.236794        -0.709453
 H         1.558636         0.590104         2.084604
 H         2.070755        -1.050541         1.868993
 H         5.073633         0.679757         0.425180
 H         4.656158        -1.540078        -1.300500
 H         3.845422        -2.081493         0.345102
 H         2.007844        -1.399412        -1.692159
 H         3.574478         1.249200        -2.029238
