19
Iteration:  3457charge 0 multiplicity 1
 C         0.047946        -0.387621        -0.159562
 C         1.552275        -0.015436        -0.141190
 C         2.238870        -0.689476         1.142969
 O         3.555917        -0.251364         1.376851
 C         4.101151         0.194507         0.146279
 C         3.855025        -0.934690        -0.892116
 C         2.586523        -0.203829        -1.278743
 C         3.127328         1.163974        -0.749476
 O         1.860607         1.459846        -0.033140
 H        -0.495141        -0.163612         0.734830
 H        -0.403274         0.146495        -0.929217
 H         0.129262        -1.480804        -0.334425
 H         1.787941        -0.337107         2.086805
 H         2.233497        -1.794138         0.995851
 H         5.085009         0.535142         0.510399
 H         4.576315        -1.029481        -1.736093
 H         3.707335        -1.859715        -0.353931
 H         2.181157        -0.299135        -2.323184
 H         3.388552         2.116544        -1.305052
