19
Iteration:  2120
 C         0.050881        -0.412164        -0.397521
 C         1.567048        -0.001732        -0.063005
 C         2.226108        -0.788822         1.138381
 O         3.574967        -0.332662         1.349369
 C         4.100187         0.220278         0.100104
 C         3.867148        -0.776408        -1.037641
 C         2.547037        -0.066600        -1.318644
 C         3.098708         1.213118        -0.557367
 O         1.883450         1.337376         0.231583
 H        -0.599818        -0.633159         0.498219
 H        -0.376457         0.465561        -0.969577
 H         0.117915        -1.380847        -0.925539
 H         1.703339        -0.623425         2.010590
 H         2.177614        -1.942464         0.979329
 H         5.153313         0.483699         0.454735
 H         4.674975        -0.648025        -1.846567
 H         3.726406        -1.856185        -0.780251
 H         2.245181        -0.092611        -2.381049
 H         3.322816         2.195070        -1.030584
