19
Iteration:   417charge 0 multiplicity 1
 C         0.068398        -0.397018        -0.403403
 C         1.545859        -0.057647        -0.103255
 C         2.307957        -1.128084         0.778158
 O         3.557359        -0.621262         1.220974
 C         4.083674         0.155480         0.117345
 C         3.935859        -0.415650        -1.307772
 C         2.516024         0.338063        -1.326252
 C         3.060109         1.309528        -0.168459
 O         1.829576         1.231807         0.655647
 H         0.116544        -1.353338        -0.915868
 H        -0.656594        -0.489660         0.399156
 H        -0.297514         0.467401        -1.095481
 H         1.682340        -1.300866         1.589040
 H         2.503938        -2.210834         0.311763
 H         5.057653         0.665643         0.249680
 H         4.652874         0.079696        -1.995674
 H         3.915115        -1.558133        -1.440635
 H         2.103376         0.639775        -2.215583
 H         3.478159         2.315682        -0.258339
