19
Iteration:   359
 C         0.104863        -0.411585        -0.398857
 C         1.531479        -0.047764        -0.076174
 C         2.250341        -1.015163         0.794985
 O         3.635449        -0.755523         1.134166
 C         4.139556         0.173644         0.177848
 C         3.951555        -0.340881        -1.288015
 C         2.499090         0.299607        -1.286766
 C         3.035832         1.296392        -0.167491
 O         1.774855         1.211496         0.595815
 H        -0.216125        -1.407904        -0.117900
 H        -0.603665         0.512285         0.049179
 H        -0.197899        -0.438472        -1.390111
 H         1.663198        -1.218574         1.794244
 H         2.410960        -1.986870         0.172164
 H         4.938761         0.579870         0.714530
 H         4.637992         0.220219        -2.065023
 H         4.095178        -1.362006        -1.618003
 H         2.026096         0.789668        -2.136006
 H         3.492006         2.238343        -0.463158
