19
Iteration:   697
 C         0.085435        -0.391680        -0.320242
 C         1.559142        -0.030109        -0.129064
 C         2.196468        -0.954134         0.919936
 O         3.594275        -0.721904         1.156320
 C         4.128172         0.200960         0.233338
 C         3.990179        -0.514603        -1.217692
 C         2.593454         0.168161        -1.227086
 C         3.010615         1.320649        -0.350766
 O         1.779028         1.318648         0.372689
 H         0.033643        -1.478863        -0.455881
 H        -0.496124        -0.272671         0.721589
 H        -0.353612         0.149139        -1.126208
 H         1.626964        -0.758289         1.777057
 H         2.033599        -2.005197         0.743027
 H         5.089510         0.646515         0.524157
 H         4.683657         0.053519        -1.917450
 H         4.160088        -1.553893        -1.135234
 H         2.057754         0.409403        -2.122139
 H         3.393593         2.349453        -0.700805
