19
Iteration:  2581charge 0 multiplicity 1
 C         0.040777        -0.299121        -0.378847
 C         1.495793        -0.078510        -0.049983
 C         2.172600        -0.784202         1.199057
 O         3.590229        -0.489149         1.222922
 C         4.133451         0.215605         0.103751
 C         4.044410        -0.606719        -1.187503
 C         2.534154        -0.046424        -1.291431
 C         3.035043         1.151890        -0.457234
 O         1.879997         1.252261         0.308849
 H        -0.098378        -0.338508        -1.457693
 H        -0.456004        -1.223838        -0.049723
 H        -0.704929         0.512943         0.051449
 H         1.707714        -0.223463         2.083671
 H         1.963319        -1.859423         1.265810
 H         5.190104         0.619601         0.379144
 H         4.679892        -0.220044        -2.012116
 H         4.274292        -1.633203        -1.182940
 H         2.054812         0.026282        -2.353018
 H         3.357650         2.177959        -0.810479
