19
Iteration:  3448charge 0 multiplicity 1
 C         0.047765        -0.371844        -0.160533
 C         1.565636        -0.016305        -0.084780
 C         2.176033        -0.710645         1.160095
 O         3.566998        -0.235483         1.358025
 C         4.131135         0.186486         0.129507
 C         3.903477        -0.920066        -0.910628
 C         2.601965        -0.168847        -1.306655
 C         3.086348         1.109187        -0.711217
 O         1.832367         1.470141        -0.043489
 H        -0.295819         0.001337         0.790970
 H        -0.459547        -0.123559        -1.034609
 H        -0.107579        -1.491104        -0.075185
 H         1.471544        -0.375433         1.926723
 H         2.110134        -1.818355         1.117544
 H         5.212192         0.554958         0.262760
 H         4.718713        -1.022055        -1.604886
 H         3.852817        -1.854961        -0.524150
 H         2.229768        -0.070170        -2.340537
 H         3.692174         1.849934        -1.277105
