19
Iteration:   239charge 0 multiplicity 1
 C         0.125881        -0.444266        -0.423699
 C         1.576488        -0.122228        -0.122114
 C         2.217358        -1.100518         0.799572
 O         3.623171        -0.761365         1.062188
 C         4.174526         0.156350         0.151498
 C         3.893528        -0.297720        -1.293472
 C         2.518255         0.452962        -1.231445
 C         3.009917         1.356049        -0.096233
 O         1.796887         1.194969         0.620864
 H        -0.659246        -0.168704         0.313572
 H        -0.220857         0.059002        -1.470761
 H        -0.010901        -1.483535        -0.522261
 H         1.764737        -0.943730         1.772319
 H         2.126828        -2.154990         0.490181
 H         5.165633         0.409996         0.403367
 H         4.688088         0.095672        -2.081470
 H         3.894013        -1.391424        -1.373829
 H         2.059998         0.882672        -2.073243
 H         3.244794         2.424022        -0.113528
