19
Iteration:  4123charge 0 multiplicity 1
 C         0.123868        -0.300300        -0.138324
 C         1.582372        -0.060079        -0.013804
 C         2.111782        -0.477664         1.333697
 O         3.502621        -0.046347         1.379283
 C         4.113700         0.188502         0.071685
 C         3.945474        -1.055991        -0.864938
 C         2.575066        -0.447568        -1.239578
 C         3.118108         1.042005        -0.866126
 O         1.880060         1.424030        -0.224005
 H        -0.295378        -1.224938         0.356099
 H        -0.351947         0.557254         0.311022
 H        -0.124919        -0.397168        -1.234102
 H         1.464692        -0.008938         2.084922
 H         1.929112        -1.621862         1.367121
 H         5.114913         0.580978         0.405180
 H         4.579737        -0.935518        -1.793336
 H         4.112147        -2.051237        -0.296252
 H         2.043657        -0.845478        -2.065634
 H         3.525920         1.937566        -1.353381
