19
Iteration:  3901charge 0 multiplicity 1
 C         0.089622        -0.363825        -0.165335
 C         1.501654         0.038400        -0.055446
 C         2.151594        -0.577781         1.182442
 O         3.596598        -0.179123         1.369958
 C         4.187829         0.147803         0.104787
 C         3.907208        -0.965246        -0.877692
 C         2.562230        -0.314287        -1.307694
 C         3.049335         1.053867        -0.700774
 O         1.849335         1.479447        -0.058493
 H        -0.011329        -1.227999        -0.778819
 H        -0.280531        -0.433935         0.821661
 H        -0.546874         0.338926        -0.761285
 H         1.565228        -0.215457         2.061666
 H         2.180216        -1.670755         0.888164
 H         5.141030         0.537812         0.240389
 H         4.715124        -0.962187        -1.736670
 H         4.004030        -2.030117        -0.551234
 H         2.199386        -0.470264        -2.343732
 H         3.468281         1.803175        -1.318417
