19
Iteration:  2194charge 0 multiplicity 1
 C        -0.049906        -0.295946        -0.274366
 C         1.539470        -0.114304        -0.083779
 C         2.180053        -0.783697         1.130695
 O         3.580321        -0.495028         1.221944
 C         4.137407         0.251565         0.156350
 C         4.001249        -0.698535        -1.066782
 C         2.668267        -0.086050        -1.251213
 C         3.063216         1.196778        -0.573489
 O         1.795230         1.359659         0.158578
 H        -0.694913         0.357071         0.330042
 H        -0.239844        -0.165962        -1.326908
 H        -0.220254        -1.197125         0.141488
 H         1.650224        -0.417481         2.109055
 H         2.064487        -1.856337         1.123913
 H         5.131482         0.690745         0.581660
 H         4.686752        -0.307856        -1.850675
 H         4.366736        -1.746731        -0.761141
 H         2.103558        -0.161420        -2.238470
 H         3.627721         2.017501        -0.980932
