19
Iteration:   328
 C         0.081868        -0.360156        -0.268672
 C         1.594904        -0.180665        -0.081807
 C         2.193848        -1.204960         0.871597
 O         3.542736        -0.785603         1.047028
 C         4.054993         0.242978         0.183945
 C         4.049113        -0.264509        -1.277847
 C         2.619283         0.352945        -1.333084
 C         3.014888         1.378696        -0.235872
 O         1.799662         1.226887         0.521510
 H        -0.334413        -0.996413         0.470454
 H        -0.397299         0.618461         0.159123
 H        -0.205976        -0.621881        -1.321619
 H         1.621049        -1.323768         1.770897
 H         2.181554        -2.222999         0.292941
 H         4.814470         0.535858         0.884457
 H         4.789729         0.386039        -1.914332
 H         4.092161        -1.363707        -1.484397
 H         2.150418         0.678312        -2.181318
 H         3.466575         2.349717        -0.397788
