19
Iteration:  1493
 C         0.101908        -0.368497        -0.396510
 C         1.612753        -0.085315        -0.108560
 C         2.152113        -0.874563         1.139190
 O         3.573943        -0.304322         1.366817
 C         4.136526         0.209023         0.110807
 C         3.888704        -0.741826        -1.164918
 C         2.548800         0.019891        -1.302292
 C         3.027798         1.197197        -0.521935
 O         1.863671         1.292894         0.298899
 H        -0.085470         0.024869        -1.337672
 H        -0.149232        -1.472716        -0.244092
 H        -0.344543         0.353514         0.318398
 H         1.507286        -0.835859         2.012314
 H         2.319772        -1.924850         0.809251
 H         5.078217         0.554796         0.549086
 H         4.595761        -0.505437        -1.974871
 H         3.874773        -1.880880        -1.082420
 H         2.092363         0.223532        -2.280171
 H         3.449725         2.065337        -0.812818
