19
Iteration:  3966
 C         0.099612        -0.369607        -0.325165
 C         1.541696        -0.020148        -0.025520
 C         2.209306        -0.584186         1.241944
 O         3.581377        -0.108904         1.314717
 C         4.174240         0.202967         0.077197
 C         3.873664        -1.025820        -0.864229
 C         2.518854        -0.328115        -1.168108
 C         3.099668         1.039146        -0.711506
 O         1.854187         1.475045        -0.062507
 H        -0.163403        -0.156733        -1.344254
 H        -0.163727        -1.331054         0.131475
 H        -0.515102         0.374291         0.277269
 H         1.795697        -0.390148         2.257050
 H         2.175825        -1.616642         1.000107
 H         5.131335         0.591184         0.267286
 H         4.383836        -0.933133        -1.851298
 H         3.800078        -1.943244        -0.330923
 H         1.925753        -0.511993        -2.087636
 H         3.423690         1.789496        -1.384967
