19
Iteration:  2305
 C         0.101052        -0.327420        -0.280629
 C         1.617581        -0.080048        -0.096715
 C         2.197440        -0.853673         1.103168
 O         3.546389        -0.363745         1.355620
 C         4.100902         0.237363         0.209444
 C         3.944510        -0.759366        -1.117580
 C         2.587760        -0.087783        -1.288861
 C         3.029815         1.132558        -0.602321
 O         1.832045         1.389017         0.148184
 H        -0.386349        -0.799749         0.564242
 H        -0.413484         0.643885        -0.327760
 H        -0.180705        -0.840102        -1.139027
 H         1.520294        -0.543830         1.975980
 H         2.054378        -1.976401         1.041570
 H         5.121607         0.679446         0.528219
 H         4.628598        -0.298257        -1.870549
 H         4.112144        -1.840954        -0.981804
 H         1.981960         0.104369        -2.220832
 H         3.523372         2.014773        -1.077281
