19
Iteration:  4681
 C         0.109664        -0.272529        -0.143139
 C         1.587342        -0.041475        -0.039632
 C         2.148320        -0.035654         1.395838
 O         3.474744         0.430570         1.332417
 C         4.085772         0.126798         0.096759
 C         3.856693        -1.235738        -0.354875
 C         2.569078        -0.779145        -1.122569
 C         3.103802         0.694228        -1.061382
 O         1.981787         1.301240        -0.599920
 H        -0.486836         0.114422         0.662629
 H        -0.369094         0.138510        -1.069313
 H        -0.034125        -1.324304        -0.248510
 H         1.503598         0.689510         2.024498
 H         2.008159        -0.998469         1.894116
 H         5.145893         0.463559         0.124691
 H         4.637323        -1.452227        -1.144052
 H         3.904773        -2.093299         0.335086
 H         2.274006        -1.300972        -2.042558
 H         3.549203         1.285508        -1.863654
