19
Iteration:  4130charge 0 multiplicity 1
 C         0.123562        -0.297916        -0.138492
 C         1.622540        -0.070578        -0.016040
 C         2.125842        -0.508748         1.317526
 O         3.491252        -0.064119         1.383406
 C         4.033389         0.219733         0.078700
 C         3.976350        -1.079438        -0.829207
 C         2.553619        -0.431352        -1.228054
 C         3.133924         1.044956        -0.862240
 O         1.894109         1.427742        -0.276510
 H        -0.178169        -1.309371         0.203456
 H        -0.391895         0.488467         0.491118
 H        -0.253827        -0.096267        -1.254516
 H         1.770279        -0.072756         2.289791
 H         2.182440        -1.611479         1.473967
 H         4.947917         0.662755         0.321150
 H         4.498789        -0.985465        -1.793903
 H         3.911179        -1.916651        -0.203796
 H         1.900243        -0.720221        -2.134348
 H         3.582085         1.920766        -1.314948
