19
Iteration:  2690charge 0 multiplicity 1
 C         0.129253        -0.306165        -0.398128
 C         1.567645        -0.150484        -0.021355
 C         2.252048        -0.825208         1.172554
 O         3.637213        -0.561223         1.261592
 C         4.121349         0.184845         0.158654
 C         3.945098        -0.637550        -1.115228
 C         2.497877        -0.089352        -1.249067
 C         2.966382         1.271889        -0.551430
 O         1.781363         1.440620         0.255417
 H         0.099660        -0.272450        -1.455030
 H        -0.225742        -1.213311        -0.031065
 H        -0.385821         0.627285        -0.111953
 H         1.645938        -0.469303         2.025809
 H         2.142617        -1.918386         0.911622
 H         5.203250         0.448420         0.373461
 H         4.475107        -0.241095        -1.960963
 H         4.179525        -1.633402        -0.938106
 H         1.939038        -0.227500        -2.268261
 H         3.435609         2.137949        -1.090466
