19
Iteration:  2103
 C         0.169977        -0.348409        -0.390158
 C         1.650275        -0.155094        -0.068943
 C         2.111677        -0.708248         1.153597
 O         3.587881        -0.421561         1.289896
 C         4.115000         0.178564         0.123838
 C         3.968699        -0.756865        -1.054884
 C         2.531548        -0.060119        -1.271430
 C         2.998758         1.164458        -0.557811
 O         1.811521         1.417121         0.216652
 H        -0.406153        -0.727273         0.432925
 H        -0.290940         0.514559        -0.824051
 H        -0.077671        -1.217266        -1.088877
 H         1.755990        -0.111777         2.106391
 H         2.104278        -1.767038         1.313164
 H         5.074790         0.567924         0.417500
 H         4.430655        -0.461118        -1.962950
 H         4.122093        -1.852827        -0.914664
 H         1.879963        -0.036612        -2.144931
 H         3.430712         2.078787        -0.977113
