19
Iteration:  1557
 C         0.106090        -0.368081        -0.280122
 C         1.571259        -0.086589        -0.053912
 C         2.191758        -0.791010         1.101059
 O         3.540635        -0.420599         1.280332
 C         4.109299         0.130551         0.192920
 C         3.949129        -0.725606        -1.075268
 C         2.581903        -0.008771        -1.344389
 C         3.088960         1.226097        -0.504701
 O         1.815737         1.406339         0.147400
 H        -0.590379         0.452432        -0.148024
 H        -0.201830        -0.861384        -1.280736
 H        -0.152479        -1.192877         0.426470
 H         1.565233        -0.685738         2.109229
 H         2.175595        -1.858951         0.851690
 H         5.062895         0.581098         0.467340
 H         4.513662        -0.397349        -1.934751
 H         4.178100        -1.831693        -1.011087
 H         2.111608         0.031749        -2.208851
 H         3.419162         2.163508        -0.870844
