19
Iteration:  4099charge 0 multiplicity 1
 C         0.001364        -0.336109        -0.244232
 C         1.513820        -0.099000        -0.101155
 C         2.209125        -0.407142         1.300202
 O         3.584529         0.004084         1.377197
 C         4.088628         0.166518         0.155539
 C         3.937438        -1.031052        -0.865300
 C         2.511315        -0.374101        -1.250412
 C         3.134904         0.942602        -0.828827
 O         1.960220         1.370518        -0.107367
 H        -0.441480        -0.774907         0.713228
 H        -0.527071         0.655349        -0.333169
 H        -0.233123        -1.194091        -1.095909
 H         1.577284         0.195592         2.044266
 H         2.076400        -1.580019         1.544023
 H         5.020980         0.593461         0.402114
 H         4.557335        -0.864387        -1.831678
 H         4.039353        -2.067990        -0.431601
 H         1.972834        -0.360869        -2.223922
 H         3.453590         1.761404        -1.432279
