19
Iteration:   528
 C         0.167708        -0.384362        -0.447357
 C         1.602251        -0.104773        -0.046032
 C         2.286019        -1.156158         0.807087
 O         3.538743        -0.595741         1.263335
 C         4.104194         0.219282         0.154535
 C         3.801304        -0.515185        -1.242871
 C         2.505140         0.340230        -1.336469
 C         3.053906         1.373383        -0.322148
 O         1.859173         1.267957         0.591829
 H        -0.224894         0.640898        -0.884734
 H         0.199258        -1.220678        -1.113593
 H        -0.561528        -0.852581         0.420413
 H         1.756965        -1.381204         1.647003
 H         2.493662        -2.140038         0.266041
 H         5.150013         0.540184         0.434701
 H         4.553235        -0.331803        -2.034897
 H         3.697449        -1.710272        -1.166137
 H         1.979342         0.671818        -2.105818
 H         3.306620         2.444470        -0.260568
