19
Iteration:  2417charge 0 multiplicity 1
 C         0.102242        -0.371893        -0.250315
 C         1.644493        -0.011157        -0.142094
 C         2.160468        -0.829342         1.105504
 O         3.502873        -0.313760         1.329924
 C         4.085929         0.193987         0.130730
 C         3.885949        -0.790570        -1.080350
 C         2.574078        -0.017307        -1.323723
 C         3.048192         1.198972        -0.606866
 O         1.904855         1.307050         0.259047
 H        -0.282709        -0.685326         0.686532
 H        -0.425218         0.443216        -0.657585
 H         0.175503        -1.206448        -0.994177
 H         1.588963        -0.612742         2.024566
 H         2.190473        -1.948924         0.891798
 H         5.100979         0.487584         0.448284
 H         4.648654        -0.589059        -1.909637
 H         3.917356        -1.847890        -0.855879
 H         2.174765         0.071084        -2.366963
 H         3.334031         2.215959        -1.010501
