19
Iteration:  3491
 C         0.124845        -0.327922        -0.337076
 C         1.561775        -0.083721        -0.034048
 C         2.273485        -0.671594         1.277860
 O         3.492812        -0.042485         1.368797
 C         4.069351         0.142438         0.110389
 C         3.901658        -1.009679        -1.007672
 C         2.534660        -0.199453        -1.295072
 C         3.086426         1.068345        -0.699614
 O         1.901772         1.415204         0.102390
 H        -0.441483        -0.839978         0.395007
 H        -0.363854         0.494438        -0.656425
 H        -0.023086        -0.900141        -1.272007
 H         1.738319        -0.365070         2.169173
 H         2.298898        -1.744841         1.539541
 H         5.126409         0.525696         0.231405
 H         4.466750        -0.923242        -1.940470
 H         3.849122        -2.011705        -0.675983
 H         2.009638        -0.249375        -2.264906
 H         3.364803         1.732039        -1.566552
