19
Iteration:  2565charge 0 multiplicity 1
 C         0.028548        -0.327696        -0.411708
 C         1.603427        -0.206008        -0.052744
 C         2.125636        -0.779937         1.187061
 O         3.634138        -0.507108         1.250996
 C         4.079400         0.202911         0.111257
 C         3.918485        -0.644342        -1.160101
 C         2.597197        -0.024532        -1.353349
 C         3.042342         1.236531        -0.552299
 O         1.876458         1.359204         0.380614
 H        -0.163331        -0.022734        -1.456944
 H        -0.172358        -1.374819        -0.166104
 H        -0.320017         0.324183         0.306100
 H         1.568344        -0.403557         2.072119
 H         2.038553        -1.890107         1.271593
 H         4.993004         0.759346         0.421927
 H         4.567596        -0.190543        -1.903395
 H         4.037235        -1.767514        -0.943172
 H         2.005429         0.033291        -2.237812
 H         3.502368         2.097326        -1.012930
