19
Iteration:  1957
 C         0.135543        -0.355118        -0.246496
 C         1.614005        -0.054160        -0.085683
 C         2.145255        -0.751058         1.165074
 O         3.580957        -0.591629         1.265877
 C         4.049959         0.262070         0.173041
 C         4.021102        -0.672822        -1.065712
 C         2.538424        -0.033647        -1.296064
 C         3.046679         1.196777        -0.550832
 O         1.822495         1.361358         0.103485
 H        -0.635217         0.018924         0.460762
 H        -0.319591        -0.116854        -1.244058
 H        -0.091919        -1.396315        -0.100596
 H         1.455009        -0.140759         1.971400
 H         1.820987        -1.777208         1.188419
 H         4.975996         0.713352         0.492849
 H         4.564983        -0.406299        -1.994468
 H         4.287724        -1.641679        -0.840458
 H         2.129461         0.054031        -2.267095
 H         3.712011         1.955104        -1.027844
