19
Iteration:  4268
 C         0.167533        -0.298586        -0.140746
 C         1.600384        -0.089050        -0.102747
 C         2.174207        -0.361842         1.270909
 O         3.472322         0.152305         1.427226
 C         4.044734         0.165891         0.152046
 C         3.903319        -1.085849        -0.718616
 C         2.529911        -0.500583        -1.290801
 C         3.118833         0.882233        -0.887744
 O         1.918748         1.362036        -0.258658
 H        -0.187924         0.636950         0.275156
 H        -0.290153        -0.561285        -1.129371
 H        -0.118336        -1.051855         0.565997
 H         1.486087         0.075172         1.978008
 H         2.176444        -1.493438         1.297854
 H         5.109253         0.518492        -0.006769
 H         4.652503        -1.108366        -1.460363
 H         3.863698        -2.009932        -0.103512
 H         1.933972        -0.638928        -2.168631
 H         3.613997         1.560073        -1.674002
