19
Iteration:  3415
 C         0.076073        -0.291865        -0.258334
 C         1.625945        -0.107107        -0.051386
 C         2.144865        -0.714906         1.206509
 O         3.508271        -0.191351         1.403270
 C         4.131642         0.175682         0.157800
 C         3.936417        -0.843705        -1.029979
 C         2.570480        -0.237773        -1.317315
 C         3.052574         1.137832        -0.745449
 O         1.908218         1.351219         0.068251
 H        -0.542239         0.621899        -0.148848
 H        -0.419814        -0.612732        -1.126130
 H        -0.256900        -0.945646         0.622699
 H         1.514452        -0.214645         1.971013
 H         2.157077        -1.781033         1.470423
 H         5.253955         0.408139         0.267412
 H         4.523806        -0.361561        -1.802763
 H         3.979015        -1.843585        -0.955120
 H         2.068515        -0.436716        -2.298909
 H         3.569202         1.882206        -1.415687
