19
Iteration:  4672charge 0 multiplicity 1
 C         0.149852        -0.294035        -0.162995
 C         1.592990        -0.052629        -0.085997
 C         2.153877        -0.047806         1.347944
 O         3.522910         0.436352         1.380357
 C         4.046744         0.180154         0.099593
 C         3.803517        -1.268433        -0.377799
 C         2.548836        -0.706738        -1.099855
 C         3.160355         0.642867        -1.068780
 O         1.932605         1.283743        -0.566128
 H        -0.315471         0.278901         0.551058
 H        -0.081999        -0.001435        -1.177732
 H        -0.078907        -1.331742        -0.008256
 H         1.558211         0.693314         1.914449
 H         2.163214        -0.972013         1.827051
 H         5.049131         0.550115         0.204421
 H         4.617795        -1.464856        -1.119117
 H         3.686116        -2.033427         0.464061
 H         2.059588        -1.168668        -1.904161
 H         3.544961         1.194996        -1.959508
