19
Iteration:  1059
 C         0.099595        -0.390891        -0.307697
 C         1.611770        -0.019224        -0.088512
 C         2.194562        -0.942135         1.017494
 O         3.572341        -0.610345         1.213257
 C         4.071373         0.201563         0.152391
 C         3.977859        -0.525120        -1.227180
 C         2.559376         0.150420        -1.311633
 C         3.020450         1.249168        -0.416978
 O         1.814931         1.268193         0.409655
 H        -0.425114         0.310831        -0.882068
 H         0.121493        -1.405291        -0.757182
 H        -0.366279        -0.507639         0.691608
 H         1.625683        -0.743528         1.937396
 H         2.095279        -1.946546         0.668040
 H         5.046196         0.615781         0.483104
 H         4.638567         0.034962        -1.913905
 H         4.185744        -1.556764        -1.279870
 H         2.025524         0.347676        -2.427681
 H         3.399616         2.318924        -0.623016
