19
Iteration:   461charge 0 multiplicity 1
 C         0.121799        -0.313441        -0.305011
 C         1.589303        -0.112479        -0.103421
 C         2.221388        -1.074637         0.871255
 O         3.610869        -0.817115         1.061018
 C         4.051046         0.247269         0.225154
 C         4.077657        -0.342840        -1.233980
 C         2.542009         0.260829        -1.406389
 C         2.946979         1.319110        -0.236728
 O         1.767950         1.267290         0.515166
 H        -0.270699        -0.681661        -1.280977
 H        -0.312341        -1.036478         0.418551
 H        -0.432077         0.622954         0.203413
 H         1.746450        -1.089446         1.798495
 H         1.981211        -2.192425         0.459856
 H         4.965057         0.568809         0.824593
 H         4.694937         0.260127        -1.935868
 H         4.425399        -1.472191        -1.162268
 H         2.035088         0.403246        -2.270099
 H         3.466813         2.283418        -0.334063
