19
Iteration:  1617charge 0 multiplicity 1
 C         0.072966        -0.284539        -0.345328
 C         1.563641        -0.064284        -0.041500
 C         2.284205        -0.886422         1.084833
 O         3.531048        -0.305537         1.354594
 C         4.154114         0.217950         0.182227
 C         3.911042        -0.806134        -1.050406
 C         2.532479        -0.058523        -1.293789
 C         3.038546         1.198540        -0.578681
 O         1.829856         1.343194         0.177686
 H        -0.537623        -0.449092         0.627242
 H        -0.208781         0.509183        -1.008121
 H         0.163542        -1.271058        -0.889934
 H         1.775112        -0.850136         1.997781
 H         2.333360        -1.966668         0.668217
 H         5.165711         0.683460         0.382841
 H         4.489659        -0.608222        -2.060507
 H         3.981694        -1.830314        -0.670479
 H         1.963538        -0.135304        -2.362757
 H         3.376822         2.209861        -1.011160
