19
Iteration:  4935
 C         0.122534        -0.322222        -0.124251
 C         1.580778         0.013304        -0.078265
 C         2.073705         0.194144         1.378220
 O         3.501669         0.547652         1.334468
 C         4.020466         0.183105         0.040767
 C         3.831862        -1.337649        -0.239599
 C         2.594905        -0.898548        -0.956554
 C         3.225884         0.536680        -1.173735
 O         2.000648         1.261156        -0.732890
 H        -0.077999        -1.128396         0.628590
 H        -0.511242         0.480126         0.323472
 H        -0.248213        -0.658820        -1.198271
 H         1.498040         0.992464         1.919117
 H         1.820260        -0.716430         1.957801
 H         5.032475         0.587414         0.187341
 H         4.555564        -1.740165        -0.896782
 H         3.636613        -1.949192         0.609504
 H         2.011965        -1.440983        -1.642448
 H         3.814195         0.918701        -2.037919
