19
Iteration:   989
 C         0.110663        -0.349188        -0.340728
 C         1.557186        -0.116614        -0.090098
 C         2.240486        -1.044263         0.938273
 O         3.509717        -0.517792         1.254084
 C         4.086519         0.223944         0.146141
 C         3.950689        -0.517791        -1.196216
 C         2.560256         0.168711        -1.286386
 C         3.067501         1.281511        -0.419315
 O         1.856177         1.239507         0.430175
 H        -0.323847        -0.042014        -1.358983
 H        -0.095090        -1.408664        -0.019026
 H        -0.347459         0.306056         0.434561
 H         1.619110        -1.000827         1.945108
 H         2.315435        -2.060005         0.569533
 H         5.086420         0.540334         0.450017
 H         4.517591        -0.038609        -1.948129
 H         3.990737        -1.617199        -1.255821
 H         2.014497         0.476654        -2.226149
 H         3.452087         2.222048        -0.879451
