19
Iteration:   449
 C         0.136410        -0.324836        -0.242404
 C         1.596587        -0.077259        -0.123677
 C         2.202500        -1.117514         0.820247
 O         3.580445        -0.830708         1.082964
 C         4.063353         0.250915         0.200604
 C         4.019901        -0.293008        -1.218589
 C         2.567745         0.230557        -1.259005
 C         3.009142         1.299059        -0.264428
 O         1.751601         1.261160         0.497691
 H        -0.022533        -0.634434        -1.280042
 H        -0.254505        -1.105908         0.527747
 H        -0.315801         0.756001        -0.376894
 H         1.628321        -0.972546         1.733803
 H         2.165761        -2.211672         0.374009
 H         4.989294         0.742361         0.589290
 H         4.650872         0.291323        -1.956959
 H         4.235902        -1.424373        -1.432162
 H         2.173310         0.417271        -2.187659
 H         3.249950         2.310827        -0.554347
