19
Iteration:  2360
 C         0.153352        -0.399452        -0.323622
 C         1.633967        -0.021572        -0.093008
 C         2.205205        -0.811619         1.173212
 O         3.571887        -0.391398         1.298886
 C         4.046911         0.182347         0.131710
 C         3.878998        -0.736951        -1.043259
 C         2.548776        -0.102256        -1.325517
 C         3.041615         1.188663        -0.552020
 O         1.858878         1.417757         0.185278
 H        -0.367988        -1.033674         0.386579
 H        -0.292827         0.589808        -0.343194
 H        -0.025750        -0.777214        -1.304101
 H         1.537580        -0.457072         2.002004
 H         2.006795        -1.858909         0.925175
 H         5.119623         0.550681         0.335155
 H         4.562683        -0.557279        -1.847489
 H         3.934999        -1.765239        -0.760704
 H         1.930185        -0.160869        -2.274620
 H         3.562789         2.148486        -0.802762
