19
Iteration:  1616
 C         0.064786        -0.284256        -0.340039
 C         1.568073        -0.056621        -0.033619
 C         2.285419        -0.885359         1.082449
 O         3.529602        -0.309428         1.349199
 C         4.152749         0.212796         0.181190
 C         3.914859        -0.796249        -1.046595
 C         2.537232        -0.067064        -1.300421
 C         3.047268         1.200505        -0.576610
 O         1.826177         1.338736         0.173862
 H        -0.512499        -0.439251         0.627008
 H        -0.215284         0.508243        -1.033406
 H         0.136173        -1.308331        -0.863770
 H         1.717633        -0.818821         2.006081
 H         2.306304        -1.960971         0.665746
 H         5.168003         0.709715         0.363800
 H         4.484170        -0.601973        -2.071609
 H         3.997415        -1.837748        -0.679509
 H         1.993071        -0.117825        -2.322628
 H         3.349800         2.205836        -0.979479
