19
Iteration:  4352charge 0 multiplicity 1
 C         0.070816        -0.343858        -0.155985
 C         1.550527        -0.075801         0.007298
 C         2.138131        -0.233774         1.309612
 O         3.507139         0.136813         1.445757
 C         4.110027         0.154461         0.098676
 C         3.919910        -1.147900        -0.704073
 C         2.555918        -0.545343        -1.257152
 C         3.150378         0.888112        -0.891972
 O         1.913170         1.380278        -0.385258
 H        -0.177188        -1.480157        -0.136309
 H        -0.624024         0.186266         0.600741
 H        -0.106006         0.054117        -1.170635
 H         1.738133         0.424556         2.117826
 H         2.070813        -1.206500         1.816682
 H         5.069957         0.678320         0.326309
 H         4.619719        -1.228637        -1.619091
 H         4.025627        -2.116103        -0.231254
 H         2.022935        -0.653643        -2.205355
 H         3.650378         1.419478        -1.687932
