19
Iteration:  2817
 C         0.090353        -0.325349        -0.350099
 C         1.610995        -0.177354        -0.101675
 C         2.156533        -0.798252         1.314043
 O         3.575360        -0.457613         1.262857
 C         4.056487         0.148823         0.131447
 C         4.003266        -0.688879        -1.196287
 C         2.603542        -0.081099        -1.280790
 C         2.963181         1.242174        -0.558853
 O         1.848339         1.416148         0.248603
 H        -0.122263         0.569327        -0.933751
 H        -0.045333        -1.237597        -1.071015
 H        -0.508056        -0.439868         0.674013
 H         1.727706        -0.260566         2.174599
 H         1.944218        -1.799132         1.445264
 H         5.100126         0.566544         0.445839
 H         4.693764        -0.302696        -1.983591
 H         4.260256        -1.805279        -1.393686
 H         2.081606         0.072434        -2.199111
 H         3.239761         2.143062        -1.160089
