19
Iteration:   933
 C         0.140763        -0.452567        -0.351760
 C         1.556942        -0.133828        -0.027711
 C         2.190002        -0.903492         0.993927
 O         3.591738        -0.636654         1.209085
 C         4.145634         0.207655         0.165860
 C         3.922318        -0.515246        -1.189055
 C         2.547756         0.178791        -1.297119
 C         3.074457         1.283947        -0.346103
 O         1.794703         1.358439         0.303594
 H        -0.445800         0.464564        -0.826197
 H         0.080660        -1.280000        -1.056022
 H        -0.446819        -0.640670         0.596552
 H         1.622924        -0.697157         2.024211
 H         2.026038        -1.936847         0.929020
 H         5.166595         0.476314         0.357387
 H         4.476914        -0.212523        -2.014194
 H         3.791895        -1.622526        -1.168358
 H         2.026639         0.362839        -2.291700
 H         3.549824         2.236868        -0.455411
