19
Iteration:   455
 C         0.145866        -0.322246        -0.254325
 C         1.593805        -0.090458        -0.140746
 C         2.207204        -1.105992         0.838756
 O         3.605308        -0.835406         1.074693
 C         4.043949         0.267663         0.212849
 C         4.064948        -0.337606        -1.232314
 C         2.537097         0.255004        -1.335318
 C         2.992520         1.292140        -0.254145
 O         1.745271         1.273913         0.517038
 H        -0.097691        -0.542631        -1.303443
 H        -0.299421        -0.987892         0.500852
 H        -0.325175         0.597699        -0.118084
 H         1.692050        -1.019802         1.877712
 H         2.088268        -2.076566         0.452010
 H         4.890848         0.590566         0.803733
 H         4.663515         0.247711        -1.920804
 H         4.380879        -1.330741        -1.278828
 H         2.016980         0.328563        -2.410059
 H         3.318301         2.346199        -0.412756
