19
Iteration:  2952charge 0 multiplicity 1
 C         0.144852        -0.341645        -0.257073
 C         1.575792        -0.087861        -0.062205
 C         2.190805        -0.805173         1.106176
 O         3.591670        -0.600717         1.197629
 C         4.086629         0.223347         0.130698
 C         3.940425        -0.662270        -1.059135
 C         2.579784        -0.101699        -1.296036
 C         2.984199         1.207665        -0.495568
 O         1.785046         1.502310         0.174335
 H        -0.447974         0.166449        -1.100095
 H         0.067250        -1.428061        -0.364920
 H        -0.408705         0.001920         0.630414
 H         1.880634        -0.314326         2.052236
 H         2.046099        -1.872164         1.305741
 H         5.064873         0.584913         0.291503
 H         4.717201        -0.434686        -1.817683
 H         4.265994        -1.674736        -0.835288
 H         2.152352         0.004645        -2.338275
 H         3.563818         2.037961        -0.910584
