19
Iteration:   217charge 0 multiplicity 1
 C         0.001310        -0.418767        -0.311885
 C         1.522978        -0.044243        -0.093309
 C         2.268059        -1.159959         0.826120
 O         3.667408        -0.837780         1.052543
 C         4.070382         0.195593         0.229289
 C         4.053524        -0.248828        -1.358565
 C         2.615189         0.389135        -1.314230
 C         3.046487         1.304933        -0.110336
 O         1.696258         1.235957         0.546046
 H        -0.591158        -0.124317         0.606070
 H        -0.447972         0.233382        -1.259038
 H        -0.251947        -1.423931        -0.379584
 H         1.751815        -1.174477         1.760206
 H         2.153513        -2.102671         0.312519
 H         4.939991         0.625923         0.636954
 H         4.931966         0.273529        -1.995690
 H         4.161372        -1.313755        -1.587859
 H         2.230707         0.729999        -2.226275
 H         3.331423         2.362272        -0.171034
