19
Iteration:   235charge 0 multiplicity 1
 C         0.093267        -0.431312        -0.424551
 C         1.549233        -0.124358        -0.116049
 C         2.204160        -1.092994         0.824160
 O         3.628784        -0.779409         1.057528
 C         4.186811         0.183485         0.150248
 C         3.913902        -0.287564        -1.305263
 C         2.574155         0.466066        -1.237558
 C         3.007468         1.317488        -0.102509
 O         1.776590         1.193796         0.605427
 H        -0.677433        -0.094852         0.338420
 H        -0.312275        -0.019133        -1.320268
 H         0.040069        -1.554557        -0.525339
 H         1.801054        -1.039834         1.929525
 H         2.180355        -2.166993         0.433469
 H         5.240971         0.473389         0.455174
 H         4.567006         0.116251        -2.084752
 H         3.892575        -1.406025        -1.347119
 H         2.061893         0.974000        -2.162148
 H         3.336564         2.392124        -0.105722
