19
Iteration:  2740charge 0 multiplicity 1
 C         0.102319        -0.386481        -0.221620
 C         1.601088        -0.056414        -0.134126
 C         2.204893        -0.895843         1.040646
 O         3.501215        -0.333733         1.339236
 C         4.069664         0.167287         0.162212
 C         3.842283        -0.733437        -1.076624
 C         2.600894         0.036240        -1.383455
 C         3.089297         1.202085        -0.542720
 O         1.883860         1.336085         0.237466
 H        -0.524685         0.355229        -0.786741
 H         0.038556        -1.501021        -0.560554
 H        -0.136922        -0.195078         0.888526
 H         1.598555        -0.492831         1.878274
 H         2.139402        -1.990204         0.898530
 H         5.154086         0.442312         0.322619
 H         4.612433        -0.197041        -1.737463
 H         4.147414        -1.867850        -1.312776
 H         2.105105        -0.021146        -2.322187
 H         3.540166         2.118987        -0.953206
