19
Iteration:  3938charge 0 multiplicity 1
 C         0.126389        -0.403500        -0.188044
 C         1.630046        -0.103704        -0.113620
 C         2.148035        -0.618959         1.280897
 O         3.525112         0.035799         1.406949
 C         4.088056         0.110344         0.108381
 C         3.786878        -0.962901        -0.917897
 C         2.538998        -0.191641        -1.430416
 C         3.097081         1.042699        -0.724724
 O         1.981651         1.387792        -0.008528
 H        -0.063998        -0.861272        -1.260899
 H        -0.307924        -1.105627         0.602318
 H        -0.377861         0.567480        -0.121059
 H         1.592262        -0.337248         2.183037
 H         2.226399        -1.810319         1.397749
 H         5.235505         0.371481         0.201511
 H         4.583009        -1.010991        -1.687607
 H         3.455557        -1.952476        -0.418545
 H         2.099959        -0.355827        -2.442036
 H         3.431077         1.954163        -1.338403
