19
Iteration:  3940charge 0 multiplicity 1
 C         0.126926        -0.389179        -0.199666
 C         1.606885        -0.088512        -0.113164
 C         2.168610        -0.625347         1.263815
 O         3.540340         0.041100         1.417213
 C         4.069939         0.104866         0.116612
 C         3.794253        -0.994891        -0.920172
 C         2.558554        -0.215677        -1.411009
 C         3.093654         1.057910        -0.746098
 O         1.969327         1.383654         0.009913
 H         0.007340        -0.761529        -1.319357
 H        -0.282870        -1.167194         0.613691
 H        -0.492392         0.523458        -0.141785
 H         1.619679        -0.275236         2.142447
 H         2.225941        -1.772571         1.345548
 H         5.227795         0.405845         0.184481
 H         4.500744        -0.964861        -1.677210
 H         3.500232        -1.934757        -0.441878
 H         2.041740        -0.319232        -2.391089
 H         3.439916         1.983062        -1.365335
