19
Iteration:  4987charge 0 multiplicity 1
 C         0.051131        -0.251055        -0.130215
 C         1.527315        -0.038490        -0.067257
 C         2.139650         0.160060         1.336816
 O         3.512729         0.631555         1.338037
 C         4.167745         0.231420         0.048852
 C         3.824553        -1.357927        -0.123556
 C         2.608553        -0.885041        -0.969415
 C         3.156285         0.532187        -1.165353
 O         1.974570         1.137125        -0.802691
 H        -0.177525        -0.717526        -1.102874
 H        -0.236091        -0.795273         0.824984
 H        -0.492175         0.780794        -0.044394
 H         1.491026         0.900565         1.899314
 H         1.948492        -0.774607         1.883441
 H         5.123156         0.749146         0.159762
 H         4.432175        -2.080424        -0.778631
 H         3.653528        -1.946335         0.761536
 H         2.088134        -1.449184        -1.778756
 H         3.640281         1.048330        -1.915158
