19
Iteration:  4871charge 0 multiplicity 1
 C         0.134712        -0.250694        -0.140502
 C         1.612217         0.043038        -0.028860
 C         2.090524         0.050408         1.327048
 O         3.406122         0.580085         1.329494
 C         4.102798         0.171093         0.123628
 C         3.895147        -1.329427        -0.320680
 C         2.570956        -0.869748        -0.958593
 C         3.102354         0.515492        -1.206041
 O         1.997463         1.303559        -0.661640
 H        -0.419167         0.608278         0.162575
 H        -0.088463        -0.626546        -1.080088
 H        -0.090321        -0.949647         0.651164
 H         1.405908         0.672412         1.945017
 H         2.175192        -0.948511         1.890492
 H         5.179882         0.397203         0.216380
 H         4.641696        -1.711070        -1.014048
 H         3.839381        -2.140055         0.472186
 H         2.085337        -1.499091        -1.668465
 H         3.671461         0.814421        -2.174085
