19
Iteration:  4652
 C         0.099008        -0.356757        -0.216380
 C         1.602737        -0.021062        -0.025309
 C         2.175300        -0.078660         1.406231
 O         3.531047         0.455227         1.393794
 C         4.179344         0.218836         0.093858
 C         3.753882        -1.392935        -0.408479
 C         2.584137        -0.687380        -1.098167
 C         3.136157         0.738893        -1.061137
 O         1.917957         1.356618        -0.610064
 H        -0.501577         0.532650        -0.095390
 H        -0.137805        -0.876849        -1.132090
 H        -0.239953        -1.148157         0.504594
 H         1.576078         0.448650         2.093166
 H         2.101375        -1.128356         1.775688
 H         5.165920         0.588378         0.239165
 H         4.333130        -1.891233        -1.166506
 H         3.411556        -2.063440         0.450334
 H         2.220038        -1.192885        -1.948553
 H         3.490749         1.406659        -1.902858
