19
Iteration:  3854
 C         0.096492        -0.259363        -0.278262
 C         1.660315        -0.108902        -0.049439
 C         2.233371        -0.566050         1.253543
 O         3.508928        -0.119817         1.366707
 C         4.064358         0.160376         0.082741
 C         3.958236        -0.923597        -0.999888
 C         2.507581        -0.284240        -1.304866
 C         3.042605         1.047068        -0.736980
 O         1.856036         1.342868         0.111827
 H        -0.398414        -1.156638         0.014387
 H        -0.355234         0.673323         0.127417
 H        -0.075287        -0.368704        -1.308058
 H         1.683588        -0.055594         2.058958
 H         2.233190        -1.669850         1.183075
 H         5.154644         0.396404         0.287064
 H         4.650731        -0.958040        -1.814317
 H         4.051527        -1.902763        -0.587887
 H         1.965542        -0.522519        -2.205832
 H         3.457199         1.907737        -1.341668
