19
Iteration:   616
 C         0.073399        -0.346816        -0.346944
 C         1.522413        -0.048088        -0.107184
 C         2.216954        -1.092716         0.881572
 O         3.598800        -0.606254         1.210317
 C         4.125614         0.241365         0.187896
 C         3.931094        -0.489169        -1.210363
 C         2.630364         0.194525        -1.314524
 C         3.027280         1.283196        -0.350244
 O         1.782589         1.292946         0.503626
 H        -0.358119        -0.826229         0.626151
 H        -0.427426         0.550475        -0.713269
 H        -0.141369        -1.196171        -1.165670
 H         1.685147        -1.236697         1.791532
 H         2.320049        -1.969737         0.304005
 H         5.117925         0.588913         0.532286
 H         4.646536        -0.263772        -2.028395
 H         4.068893        -1.663103        -1.186951
 H         2.274566         0.499872        -2.230637
 H         3.347660         2.306375        -0.552006
