19
Iteration:  4131charge 0 multiplicity 1
 C         0.123485        -0.294202        -0.138783
 C         1.623275        -0.068719        -0.019506
 C         2.133741        -0.510146         1.317306
 O         3.490547        -0.066179         1.382990
 C         4.025660         0.223379         0.082926
 C         3.972794        -1.073748        -0.821703
 C         2.551304        -0.427847        -1.226588
 C         3.131706         1.043174        -0.861128
 O         1.896004         1.425247        -0.281077
 H        -0.161740        -1.339725         0.187040
 H        -0.397097         0.465746         0.512287
 H        -0.277467        -0.056296        -1.267670
 H         1.796017        -0.085741         2.290072
 H         2.206763        -1.638379         1.484747
 H         4.939602         0.675955         0.291955
 H         4.526719        -1.024144        -1.790516
 H         3.899072        -1.938919        -0.207470
 H         1.910718        -0.690484        -2.130358
 H         3.594071         1.882550        -1.336115
