19
Iteration:  1027
 C         0.119366        -0.222370        -0.440487
 C         1.594555        -0.118543        -0.071913
 C         2.350638        -1.127727         0.939080
 O         3.575245        -0.422561         1.248193
 C         4.119569         0.275283         0.110868
 C         3.838277        -0.616555        -1.167270
 C         2.529688         0.143151        -1.215341
 C         2.992417         1.244485        -0.423725
 O         1.797058         1.210025         0.477305
 H        -0.157220         0.171711        -1.369657
 H        -0.285195        -1.205936        -0.496633
 H        -0.450370         0.342201         0.290858
 H         1.949465        -1.439794         1.818997
 H         2.546237        -2.079196         0.390964
 H         5.119967         0.628597         0.408530
 H         4.621095        -0.283577        -1.917141
 H         3.843235        -1.685873        -0.953142
 H         1.986011         0.426871        -2.248639
 H         3.297610         2.276396        -0.623289
