19
Iteration:  1678
 C         0.083024        -0.467635        -0.276137
 C         1.554894        -0.084617        -0.144671
 C         2.189143        -0.755625         1.125783
 O         3.557389        -0.381292         1.329283
 C         4.112608         0.155050         0.137108
 C         3.917415        -0.802543        -1.075427
 C         2.593248         0.034317        -1.319689
 C         3.073621         1.223759        -0.523650
 O         1.842717         1.420809         0.173115
 H        -0.356040        -0.952782         0.524945
 H        -0.499193         0.452998        -0.603020
 H        -0.160447        -1.135206        -1.141466
 H         1.758549        -0.251655         2.140531
 H         2.035948        -1.804654         1.156274
 H         5.111270         0.539890         0.474462
 H         4.511485        -0.571743        -1.895671
 H         4.158698        -1.854172        -0.874235
 H         2.098505        -0.025963        -2.317480
 H         3.615676         2.030897        -0.911285
