19
Iteration:  2026charge 0 multiplicity 1
 C         0.124470        -0.344455        -0.278359
 C         1.612935        -0.064299        -0.091429
 C         2.269230        -0.934152         0.984422
 O         3.477726        -0.256996         1.413217
 C         4.044179         0.178688         0.099356
 C         3.850280        -0.824721        -1.003988
 C         2.567645         0.018096        -1.384857
 C         3.081151         1.275870        -0.596054
 O         1.893965         1.342200         0.222718
 H        -0.576828         0.020505         0.449051
 H        -0.232782         0.094940        -1.209611
 H        -0.033275        -1.496526        -0.236755
 H         1.700244        -1.070719         2.084831
 H         2.484577        -1.963229         0.916452
 H         5.064673         0.418680         0.236728
 H         4.792889        -0.732346        -1.577704
 H         3.783732        -1.936925        -0.634807
 H         2.051763         0.064654        -2.339337
 H         3.381447         2.275719        -0.941052
