19
Iteration:  3602charge 0 multiplicity 1
 C         0.125736        -0.303674        -0.300252
 C         1.535910        -0.057355        -0.010380
 C         2.245872        -0.643763         1.295132
 O         3.490899        -0.007438         1.326783
 C         4.104287         0.202513         0.089267
 C         3.895196        -0.994854        -0.896755
 C         2.531222        -0.258051        -1.334941
 C         3.083296         1.097530        -0.757657
 O         1.914830         1.286199         0.029575
 H         0.065806        -1.234179        -0.867685
 H        -0.420230        -0.525987         0.621230
 H        -0.223344         0.575497        -0.820160
 H         1.713545        -0.322946         2.251825
 H         2.159001        -1.802625         1.565117
 H         5.239906         0.396874         0.272347
 H         4.535776        -1.115971        -1.859450
 H         3.648712        -1.985873        -0.489643
 H         2.046761        -0.239808        -2.334740
 H         3.448269         1.987491        -1.387285
