19
Iteration:  3272charge 0 multiplicity 1
 C         0.159415        -0.273011        -0.363468
 C         1.575774        -0.050570        -0.008321
 C         2.213841        -0.815492         1.195108
 O         3.633867        -0.230202         1.322482
 C         4.124124         0.207545         0.137909
 C         3.859538        -0.852341        -1.029957
 C         2.551838        -0.151011        -1.281015
 C         3.035614         1.152410        -0.670936
 O         1.798201         1.344388         0.186972
 H        -0.140475        -1.312952        -0.610486
 H        -0.542569        -0.020201         0.484835
 H        -0.087031         0.494304        -1.232203
 H         1.737519        -0.732546         2.211140
 H         2.308802        -1.861029         0.829900
 H         5.239661         0.402689         0.345370
 H         4.317771        -0.650092        -2.041025
 H         3.732380        -1.888279        -0.773431
 H         1.880858        -0.272758        -2.216084
 H         3.365575         2.098194        -1.224281
