19
Iteration:  2510
 C         0.051109        -0.428092        -0.232208
 C         1.564586        -0.076789        -0.115675
 C         2.275076        -0.919282         0.949237
 O         3.499876        -0.287426         1.384176
 C         4.111354         0.120663         0.223389
 C         3.798869        -0.734354        -1.096503
 C         2.554688         0.040227        -1.397954
 C         3.085166         1.255572        -0.543713
 O         1.962237         1.392887         0.254634
 H        -0.631818         0.460756        -0.484717
 H        -0.014449        -1.222463        -1.053618
 H        -0.226060        -0.938437         0.654298
 H         1.526974        -0.839018         1.741286
 H         2.438884        -1.944130         0.573747
 H         5.111433         0.500889         0.516785
 H         4.491908        -0.782882        -1.939281
 H         4.008226        -1.809942        -0.739190
 H         2.098774         0.330294        -2.303572
 H         3.476619         2.159178        -0.948560
