19
Iteration:  4558charge 0 multiplicity 1
 C         0.044842        -0.289252        -0.184273
 C         1.539419        -0.059336        -0.043438
 C         2.142494        -0.233693         1.440692
 O         3.497656         0.328609         1.378143
 C         4.153958         0.177349         0.092969
 C         3.897879        -1.244935        -0.438431
 C         2.585438        -0.655733        -1.129561
 C         3.170593         0.781652        -1.147396
 O         1.913296         1.386806        -0.494293
 H        -0.247135        -1.235075        -0.763333
 H        -0.489273        -0.080370         0.717675
 H        -0.333119         0.434775        -0.928531
 H         1.560634         0.332091         2.248984
 H         2.198810        -1.181019         1.884425
 H         5.226987         0.527377         0.146232
 H         4.653863        -1.394338        -1.278986
 H         3.877885        -1.958292         0.366322
 H         1.921854        -1.180949        -1.973099
 H         3.604661         1.285113        -1.999145
