19
Iteration:  3779charge 0 multiplicity 1
 C         0.074154        -0.373210        -0.168305
 C         1.553828        -0.028832        -0.054302
 C         2.182355        -0.596851         1.200076
 O         3.516392        -0.227456         1.404893
 C         4.156862         0.149727         0.157425
 C         3.905430        -0.904430        -0.986074
 C         2.523452        -0.193915        -1.288346
 C         3.128692         1.111138        -0.755199
 O         1.889291         1.393026        -0.068777
 H        -0.221863        -1.097880         0.564784
 H        -0.540361         0.569609        -0.176031
 H        -0.135309        -0.942177        -1.064950
 H         1.645407        -0.109880         2.049785
 H         2.084639        -1.759433         1.235473
 H         5.187576         0.479277         0.350658
 H         4.771253        -0.784953        -1.837813
 H         3.863944        -1.973911        -0.635089
 H         2.048696        -0.327313        -2.247237
 H         3.472195         2.030636        -1.215294
