19
Iteration:  1529charge 0 multiplicity 1
 C         0.125014        -0.368368        -0.431932
 C         1.570758        -0.084637        -0.022291
 C         2.208387        -0.867755         1.053017
 O         3.609037        -0.322312         1.354667
 C         4.095301         0.201711         0.126242
 C         3.802002        -0.789999        -1.022844
 C         2.544458         0.022858        -1.317562
 C         3.097376         1.236373        -0.531925
 O         1.876654         1.358094         0.286122
 H        -0.462599         0.392419        -0.915447
 H         0.053116        -1.164151        -1.138463
 H        -0.467545        -0.836181         0.382404
 H         1.690266        -0.941660         1.934070
 H         2.422666        -1.907286         0.688551
 H         5.114177         0.648288         0.308705
 H         4.436298        -0.698283        -1.951775
 H         3.759506        -1.816304        -0.694451
 H         1.955392         0.038659        -2.384457
 H         3.375787         2.205635        -1.031397
