19
Iteration:  2213charge 0 multiplicity 1
 C         0.153413        -0.334209        -0.352614
 C         1.572020        -0.050613        -0.017310
 C         2.168621        -0.731499         1.185725
 O         3.583479        -0.539979         1.261848
 C         4.142946         0.227598         0.154114
 C         4.065837        -0.660447        -1.078017
 C         2.538968        -0.160424        -1.315566
 C         3.000115         1.170825        -0.515082
 O         1.779302         1.399357         0.161283
 H        -0.387556         0.470883         0.225777
 H        -0.050906        -0.035328        -1.379937
 H        -0.289227        -1.344799         0.027553
 H         1.542756        -0.355841         2.123267
 H         1.802814        -1.833494         1.114523
 H         5.107015         0.630772         0.289746
 H         4.420225        -0.458981        -2.015061
 H         4.117619        -1.743292        -0.910831
 H         1.958167         0.000861        -2.221770
 H         3.240321         2.067243        -1.085598
