19
Iteration:  3370charge 0 multiplicity 1
 C         0.148653        -0.336015        -0.347786
 C         1.553315        -0.085742        -0.068767
 C         2.231935        -0.759162         1.158346
 O         3.631092        -0.199206         1.347764
 C         4.184946         0.129174         0.107217
 C         3.806344        -0.934435        -0.925920
 C         2.503979        -0.171625        -1.238219
 C         3.018599         1.228282        -0.706111
 O         1.825409         1.436300         0.137183
 H        -0.109084         0.180710        -1.289810
 H        -0.063212        -1.388969        -0.519749
 H        -0.554089         0.034732         0.489280
 H         1.599226        -0.754720         2.059163
 H         2.290724        -1.858686         0.998989
 H         5.234017         0.522239         0.210108
 H         4.533265        -0.796244        -1.722116
 H         3.767970        -1.831605        -0.415321
 H         2.205440        -0.205632        -2.355700
 H         3.382837         2.156822        -1.285438
