19
Iteration:  4716charge 0 multiplicity 1
 C         0.054483        -0.246155        -0.115620
 C         1.538514        -0.025011        -0.064011
 C         2.117270        -0.041659         1.314588
 O         3.478880         0.397391         1.347396
 C         4.149308         0.200664         0.104212
 C         3.913763        -1.213633        -0.364153
 C         2.525803        -0.816244        -1.000520
 C         3.136966         0.646604        -1.049234
 O         1.973625         1.278686        -0.645112
 H        -0.207644        -0.739200         0.747520
 H        -0.407090         0.714077        -0.217280
 H        -0.196116        -0.865082        -0.968914
 H         1.588259         0.710207         1.951758
 H         1.999297        -1.026327         1.706503
 H         5.143410         0.624184         0.079874
 H         4.519275        -1.346188        -1.294439
 H         4.125540        -2.062033         0.397203
 H         2.173111        -1.091510        -1.939986
 H         3.751491         0.915840        -1.956330
