19
Iteration:  1528
 C         0.127707        -0.365180        -0.437250
 C         1.578303        -0.081558        -0.022870
 C         2.209495        -0.868343         1.056691
 O         3.606274        -0.319178         1.348929
 C         4.094539         0.200305         0.123101
 C         3.799889        -0.792392        -1.018308
 C         2.537340         0.021916        -1.322709
 C         3.089743         1.241768        -0.533248
 O         1.881682         1.352757         0.287646
 H        -0.446470         0.375077        -0.914194
 H         0.054540        -1.198501        -1.145196
 H        -0.481632        -0.809134         0.404560
 H         1.706180        -0.943950         1.938450
 H         2.443787        -1.900257         0.699059
 H         5.106782         0.642012         0.351639
 H         4.437485        -0.682059        -1.947326
 H         3.743479        -1.835402        -0.689801
 H         1.973207         0.045962        -2.365787
 H         3.378575         2.186921        -0.979789
