19
Iteration:  4857charge 0 multiplicity 1
 C         0.111549        -0.242843        -0.058621
 C         1.564975        -0.025616        -0.103642
 C         2.047622         0.044771         1.384429
 O         3.443184         0.513331         1.300573
 C         4.133884         0.159005         0.077875
 C         3.867576        -1.311012        -0.256618
 C         2.574448        -0.842401        -0.947454
 C         3.243914         0.607818        -1.165528
 O         1.995862         1.245844        -0.718059
 H        -0.290794         0.739444        -0.352477
 H        -0.352252        -0.975473        -0.836044
 H        -0.389132        -0.642512         0.916190
 H         1.578446         0.844238         2.065133
 H         1.854831        -1.049902         1.645863
 H         5.005923         0.803660         0.167369
 H         4.471004        -1.507685        -1.123965
 H         3.936059        -2.050328         0.457019
 H         2.067180        -1.409589        -1.716839
 H         3.536594         1.131563        -2.068535
