19
Iteration:  3677charge 0 multiplicity 1
 C         0.120359        -0.353176        -0.125869
 C         1.610122        -0.092162        -0.157571
 C         2.167633        -0.608656         1.200297
 O         3.464395        -0.128290         1.397141
 C         4.080794         0.111378         0.179251
 C         3.912224        -0.938107        -0.967652
 C         2.610173        -0.245855        -1.420403
 C         3.077163         1.107960        -0.746287
 O         1.896415         1.397600        -0.010896
 H         0.052345        -1.395235         0.203992
 H        -0.197763         0.224117         0.729781
 H        -0.551600        -0.025766        -0.925469
 H         1.556386        -0.205062         2.031369
 H         2.121703        -1.604178         1.415480
 H         5.107044         0.617724         0.257714
 H         4.774583        -0.765378        -1.738368
 H         3.884348        -1.976489        -0.504841
 H         1.998744        -0.352980        -2.328126
 H         3.502822         2.092199        -1.202893
