19
Iteration:  3096
 C         0.092701        -0.434263        -0.126477
 C         1.524849         0.000225        -0.102588
 C         2.165003        -0.751559         1.068359
 O         3.516898        -0.434238         1.313629
 C         4.121363         0.167219         0.130109
 C         3.919385        -0.740979        -1.093644
 C         2.638605        -0.020479        -1.391654
 C         3.086402         1.206799        -0.596132
 O         1.865967         1.404175         0.199072
 H        -0.676312         0.306837         0.112051
 H        -0.127686        -0.713879        -1.208285
 H        -0.171240        -1.273460         0.493048
 H         1.678963        -0.501961         2.044055
 H         1.936431        -1.868126         0.824807
 H         5.051027         0.442300         0.578798
 H         4.645967        -0.704398        -1.914634
 H         4.018717        -1.746014        -0.817447
 H         2.247186        -0.007047        -2.458288
 H         3.654876         2.117171        -0.843427
