19
Iteration:  3089
 C         0.061798        -0.423790        -0.141072
 C         1.528403        -0.026707        -0.072684
 C         2.147407        -0.739277         1.108071
 O         3.492366        -0.442370         1.274602
 C         4.058432         0.116943         0.126262
 C         3.924212        -0.689641        -1.101210
 C         2.680580         0.001071        -1.364482
 C         3.095357         1.224936        -0.554468
 O         1.934654         1.356377         0.137540
 H        -0.615732         0.334337         0.213573
 H        -0.126577        -0.796012        -1.118562
 H        -0.104570        -1.243797         0.651364
 H         1.495673        -0.514059         1.961552
 H         2.016291        -1.845405         1.025240
 H         5.057802         0.638844         0.435238
 H         4.734676        -0.366274        -1.831439
 H         4.011037        -1.826973        -0.886172
 H         2.191364        -0.025649        -2.330514
 H         3.518117         2.148404        -1.053284
