19
Iteration:  1974
 C         0.082453        -0.366021        -0.319639
 C         1.559234        -0.104654        -0.059347
 C         2.140174        -0.770924         1.188001
 O         3.551679        -0.500192         1.282144
 C         4.117296         0.217954         0.169815
 C         3.992759        -0.667560        -1.119514
 C         2.601568        -0.086963        -1.313529
 C         3.016448         1.217089        -0.590662
 O         1.853031         1.401551         0.202854
 H        -0.406709         0.469029         0.227657
 H        -0.153511        -0.115926        -1.336379
 H        -0.189033        -1.429653        -0.047941
 H         1.799804        -0.500176         2.107202
 H         2.032991        -1.923908         1.240190
 H         5.111489         0.680257         0.546848
 H         4.755661        -0.302118        -1.818419
 H         3.940963        -1.842086        -0.960932
 H         2.126740        -0.186179        -2.415575
 H         3.350052         2.148256        -1.092413
