19
Iteration:  4423charge 0 multiplicity 1
 C         0.086077        -0.313904        -0.199239
 C         1.571417        -0.017589        -0.043465
 C         2.178426        -0.259918         1.299942
 O         3.513134         0.294666         1.393893
 C         4.139703         0.138233         0.124308
 C         3.849522        -1.172132        -0.539352
 C         2.541804        -0.602946        -1.192199
 C         3.120736         0.846665        -1.038745
 O         1.906091         1.336059        -0.344659
 H        -0.186856         0.377390        -1.040809
 H        -0.190766        -1.368428        -0.669875
 H        -0.549085        -0.030040         0.753740
 H         1.657994         0.087134         2.173478
 H         2.363407        -1.389994         1.516519
 H         5.188615         0.316796         0.167083
 H         4.615413        -1.240109        -1.235095
 H         3.940103        -2.119218         0.024880
 H         2.084577        -1.131216        -2.083418
 H         3.479753         1.695011        -1.674459
