19
Iteration:  1676
 C         0.072356        -0.472283        -0.296909
 C         1.572072        -0.089522        -0.141083
 C         2.168710        -0.750903         1.130412
 O         3.556322        -0.359382         1.329370
 C         4.125394         0.154006         0.132026
 C         3.909305        -0.803556        -1.082281
 C         2.609550         0.047055        -1.300139
 C         3.075967         1.206546        -0.528778
 O         1.841105         1.409161         0.187062
 H        -0.383929        -0.943755         0.557295
 H        -0.498512         0.486207        -0.541571
 H        -0.105239        -1.130309        -1.136215
 H         1.820621        -0.326932         2.085972
 H         2.002814        -1.819598         1.151028
 H         5.098270         0.517301         0.378376
 H         4.505946        -0.574472        -1.895382
 H         4.105998        -1.861387        -0.828445
 H         2.063936        -0.011946        -2.369810
 H         3.595059         2.064999        -0.950958
