19
Iteration:  3385
 C         0.080288        -0.296138        -0.382273
 C         1.573830         0.001358         0.027733
 C         2.248929        -0.759649         1.171921
 O         3.561932        -0.208221         1.297701
 C         4.099822         0.262374         0.065968
 C         3.903514        -0.930852        -0.945191
 C         2.569176        -0.213683        -1.247008
 C         3.060091         1.113012        -0.643087
 O         1.843132         1.384690         0.134190
 H        -0.416458         0.497339        -1.055545
 H        -0.003753        -1.243177        -1.022710
 H        -0.522357        -0.370345         0.569015
 H         1.866277        -0.427502         2.139982
 H         2.324357        -1.831990         1.008737
 H         5.144949         0.625720         0.281634
 H         4.505917        -0.971962        -1.883396
 H         3.788500        -2.026946        -0.526577
 H         1.940691        -0.422452        -2.113956
 H         3.428256         1.929852        -1.211426
