19
Iteration:  3889
 C         0.013840        -0.348475        -0.241252
 C         1.530959        -0.024500        -0.001837
 C         2.253343        -0.579488         1.211593
 O         3.569425        -0.257633         1.371997
 C         4.121236         0.209004         0.109950
 C         3.934730        -0.913207        -0.905117
 C         2.528805        -0.307427        -1.227651
 C         3.117312         1.036976        -0.793097
 O         1.855486         1.501901        -0.085959
 H        -0.079955        -1.397570        -0.401152
 H        -0.634383        -0.189210         0.597819
 H        -0.291198         0.408432        -0.985691
 H         1.828420        -0.504965         2.240003
 H         2.084030        -1.736315         1.194954
 H         5.088575         0.552783         0.338838
 H         4.576207        -0.775805        -1.858002
 H         3.981930        -1.849665        -0.345716
 H         1.995900        -0.397272        -2.181443
 H         3.613941         1.805700        -1.344219
