19
Iteration:  3831
 C         0.017079        -0.315308        -0.266769
 C         1.561337        -0.099696        -0.089259
 C         2.141624        -0.702031         1.236511
 O         3.555272        -0.042802         1.391657
 C         4.160959         0.224528         0.077175
 C         3.837970        -0.950757        -0.935317
 C         2.572365        -0.196917        -1.305634
 C         3.126766         1.052722        -0.727451
 O         1.918883         1.333810         0.051651
 H        -0.294708        -1.108732         0.405162
 H        -0.455367         0.650740         0.028930
 H        -0.320773        -0.764591        -1.154915
 H         1.762534        -0.331322         2.169553
 H         2.325618        -1.777606         1.100115
 H         5.308070         0.427139         0.128468
 H         4.460820        -0.965487        -1.764780
 H         3.825547        -1.991969        -0.693301
 H         2.300658        -0.298120        -2.344242
 H         3.448010         2.053202        -1.169700
