19
Iteration:  3324
 C         0.065080        -0.422357        -0.099953
 C         1.568348        -0.079274        -0.103666
 C         2.181295        -0.658706         1.090186
 O         3.441610        -0.251172         1.346590
 C         4.160646         0.121439         0.110637
 C         3.988554        -0.844835        -1.064028
 C         2.614520        -0.083891        -1.334332
 C         3.090151         1.150035        -0.620934
 O         1.905272         1.388018         0.087004
 H        -0.213397        -0.859761        -1.047887
 H        -0.297055        -1.105549         0.714326
 H        -0.484933         0.494370        -0.001952
 H         1.520250        -0.367180         1.926604
 H         1.881511        -1.742244         1.118883
 H         5.181170         0.235598         0.430002
 H         4.547844        -0.436428        -1.904654
 H         3.940090        -1.898120        -0.829244
 H         1.977900        -0.098840        -2.261439
 H         3.342369         2.094266        -1.149975
