19
Iteration:  3724charge 0 multiplicity 1
 C         0.123269        -0.313608        -0.294172
 C         1.566304        -0.081543        -0.016231
 C         2.244662        -0.741200         1.239136
 O         3.556176        -0.148202         1.352613
 C         4.089431         0.212702         0.097627
 C         3.824048        -0.927833        -0.890419
 C         2.545292        -0.254945        -1.207783
 C         3.082382         1.096331        -0.802295
 O         1.884897         1.451435         0.011342
 H        -0.348468        -0.990727         0.405259
 H        -0.421558         0.689162        -0.154684
 H        -0.053762        -0.510966        -1.314610
 H         1.616229        -0.730376         2.144098
 H         2.276977        -1.736365         1.057259
 H         5.155919         0.502980         0.164444
 H         4.575388        -0.680868        -1.769609
 H         3.840732        -1.946183        -0.477678
 H         2.215580        -0.509757        -2.203916
 H         3.345858         1.882011        -1.513505
