19
Iteration:  4879
 C         0.126492        -0.234509        -0.177941
 C         1.576708        -0.009019        -0.034019
 C         2.179464         0.047127         1.398683
 O         3.451170         0.608289         1.317975
 C         4.049814         0.161554         0.098943
 C         3.857854        -1.329669        -0.287275
 C         2.535325        -0.911034        -0.968045
 C         3.105375         0.581035        -1.138951
 O         2.032967         1.281615        -0.701250
 H        -0.607622         0.436476         0.314887
 H        -0.203840        -0.436292        -1.270363
 H        -0.073611        -1.334034         0.265472
 H         1.560805         0.848410         1.920620
 H         2.220578        -0.970834         1.887251
 H         5.083530         0.467272         0.304868
 H         4.679265        -1.603774        -0.928843
 H         3.797297        -2.018644         0.488947
 H         1.999045        -1.306855        -1.816022
 H         3.592425         0.730362        -2.090834
