19
Iteration:  1323
 C         0.093313        -0.362390        -0.186464
 C         1.644627        -0.053686        -0.166010
 C         2.095383        -0.941383         1.038167
 O         3.504631        -0.525837         1.319579
 C         4.172883         0.174807         0.217703
 C         3.979771        -0.596616        -1.189696
 C         2.624475         0.037829        -1.368526
 C         3.023643         1.223430        -0.494930
 O         1.793068         1.371983         0.240809
 H        -0.136546        -1.463127         0.239870
 H        -0.461244         0.385085         0.394551
 H        -0.332658        -0.275114        -1.272209
 H         1.665572        -0.666389         2.115980
 H         2.128184        -1.987197         0.909780
 H         5.134182         0.599075         0.476159
 H         4.683096        -0.023935        -1.865378
 H         4.252079        -1.611884        -1.337358
 H         2.222456         0.166415        -2.280404
 H         3.432422         2.237768        -0.877688
