19
Iteration:  4945charge 0 multiplicity 1
 C         0.104148        -0.318886        -0.048099
 C         1.625667         0.019798        -0.068525
 C         2.026046         0.185412         1.361518
 O         3.430678         0.579219         1.366316
 C         4.120607         0.200074         0.143753
 C         3.824340        -1.349262        -0.314679
 C         2.534596        -0.862948        -0.915680
 C         3.222607         0.537211        -1.203543
 O         2.049322         1.202419        -0.797073
 H         0.102925        -1.401235         0.192400
 H        -0.478285         0.454927         0.542055
 H        -0.342800        -0.262577        -1.176031
 H         1.508891         1.053118         1.858706
 H         1.899597        -0.741890         1.871952
 H         5.165412         0.525420         0.094849
 H         4.547012        -1.737303        -1.002069
 H         3.823689        -2.037491         0.485118
 H         2.055559        -1.499617        -1.632547
 H         3.510048         0.915189        -2.159625
