19
Iteration:  3910charge 0 multiplicity 1
 C         0.069209        -0.361460        -0.131352
 C         1.630920         0.024485        -0.132495
 C         2.137143        -0.597473         1.145488
 O         3.566816        -0.112642         1.373397
 C         4.093208         0.163720         0.142746
 C         3.895041        -1.058890        -0.918438
 C         2.588712        -0.227946        -1.275102
 C         3.097672         1.096635        -0.726484
 O         1.868626         1.405695        -0.049556
 H         0.061237        -1.265267        -0.699499
 H        -0.362521        -0.773558         0.789983
 H        -0.541990         0.471817        -0.469331
 H         1.618673        -0.246845         2.045317
 H         2.070649        -1.652416         1.273836
 H         5.114518         0.491061         0.277795
 H         4.568483        -0.947045        -1.786206
 H         3.817465        -2.074976        -0.595628
 H         2.144120        -0.399312        -2.258983
 H         3.366519         1.941182        -1.347277
