19
Iteration:  2786
 C         0.074685        -0.353387        -0.365134
 C         1.557834        -0.058189        -0.130062
 C         2.270719        -0.865314         1.091292
 O         3.624119        -0.336002         1.276858
 C         4.078935         0.200157         0.130623
 C         3.833999        -0.782820        -0.995643
 C         2.511920        -0.054881        -1.260247
 C         3.057234         1.242742        -0.534148
 O         1.898578         1.352322         0.256652
 H        -0.466487         0.524510        -0.700263
 H         0.163942        -0.999527        -1.258776
 H        -0.559661        -0.841488         0.490634
 H         1.775553        -0.777587         2.091990
 H         2.241922        -1.892480         0.711925
 H         5.141615         0.618352         0.315834
 H         4.534213        -0.589584        -1.869054
 H         3.770454        -1.907042        -0.700746
 H         2.090005         0.083988        -2.266058
 H         3.288872         2.271620        -0.915519
