19
Iteration:   109charge 0 multiplicity 1
 C         0.178107        -0.488306        -0.443509
 C         1.600662        -0.050728        -0.003885
 C         2.195049        -1.072802         0.906680
 O         3.614653        -0.838176         1.034193
 C         4.102741         0.124177         0.135661
 C         3.914074        -0.281672        -1.369404
 C         2.526454         0.435673        -1.234353
 C         3.001883         1.399534        -0.216201
 O         1.779792         1.245270         0.688795
 H        -0.284169        -1.044112         0.363050
 H        -0.457747         0.280392        -1.078151
 H         0.307768        -1.211704        -1.194431
 H         1.733327        -1.031910         1.863664
 H         2.086748        -2.172248         0.619141
 H         5.085387         0.430191         0.448703
 H         4.583269         0.340607        -1.995623
 H         3.985384        -1.256537        -1.740950
 H         2.001010         0.617272        -2.132702
 H         3.382730         2.420343        -0.333661
