19
Iteration:  4579
 C         0.054939        -0.253709        -0.189382
 C         1.563616        -0.029959        -0.044237
 C         2.174568        -0.125245         1.311729
 O         3.553606         0.302212         1.416594
 C         4.125189         0.238855         0.114420
 C         3.888649        -1.253882        -0.485432
 C         2.565045        -0.696152        -1.053187
 C         3.103711         0.740870        -0.980812
 O         1.899284         1.294984        -0.570463
 H        -0.149820        -0.815107        -1.195792
 H        -0.349643        -0.777347         0.700311
 H        -0.539472         0.692124        -0.317333
 H         1.681952         0.466958         2.114262
 H         2.043337        -1.150991         1.636436
 H         5.150237         0.681148         0.091067
 H         4.533114        -1.400619        -1.356169
 H         3.782533        -2.028836         0.234655
 H         2.272921        -1.215955        -2.063033
 H         3.586229         1.249908        -1.808635
