19
Iteration:  2688
 C         0.137917        -0.307708        -0.405089
 C         1.564279        -0.158700        -0.027242
 C         2.255177        -0.820633         1.167759
 O         3.635255        -0.555739         1.289612
 C         4.129486         0.196479         0.168300
 C         3.939585        -0.643237        -1.136564
 C         2.501448        -0.065918        -1.264978
 C         2.939083         1.254597        -0.552473
 O         1.805024         1.435478         0.256394
 H         0.074481        -0.301257        -1.446068
 H        -0.230401        -1.199177         0.014333
 H        -0.409172         0.629862        -0.108336
 H         1.623960        -0.464680         2.042556
 H         2.054393        -1.952963         0.859878
 H         5.259673         0.454167         0.364234
 H         4.465161        -0.193938        -1.967748
 H         4.185063        -1.711557        -0.925769
 H         1.873480        -0.241788        -2.208096
 H         3.419113         2.131831        -1.078682
