19
Iteration:  3079charge 0 multiplicity 1
 C         0.045046        -0.400101        -0.161228
 C         1.627484        -0.095761        -0.082553
 C         2.075472        -0.795130         1.164664
 O         3.487260        -0.432172         1.271038
 C         4.058246         0.188911         0.166836
 C         4.022974        -0.705733        -1.130689
 C         2.564839         0.010488        -1.336671
 C         3.149410         1.191917        -0.568091
 O         1.911431         1.363673         0.118237
 H        -0.443135         0.548500         0.052423
 H        -0.425275        -0.809710        -1.018471
 H        -0.082153        -1.226908         0.625452
 H         1.596816        -0.316240         2.023759
 H         2.057537        -1.842501         1.147369
 H         5.178596         0.446891         0.386473
 H         4.723778        -0.161732        -1.796409
 H         3.986067        -1.858989        -1.300145
 H         2.041214         0.115094        -2.259986
 H         3.430891         2.152867        -1.048343
