19
Iteration:  3075
 C         0.071285        -0.386955        -0.163182
 C         1.626034        -0.119206        -0.121231
 C         2.080838        -0.799517         1.177387
 O         3.495418        -0.423101         1.300223
 C         4.104334         0.209605         0.168445
 C         4.020275        -0.706092        -1.159628
 C         2.540140        -0.016636        -1.326476
 C         3.146917         1.175402        -0.598516
 O         1.867011         1.379035         0.145612
 H        -0.409911         0.561698         0.027832
 H        -0.465309        -0.751787        -1.093335
 H        -0.240059        -1.108279         0.619288
 H         1.676078        -0.300374         2.069599
 H         1.936613        -1.983631         1.173157
 H         5.135877         0.370055         0.556135
 H         4.736945        -0.253286        -1.920259
 H         4.155559        -1.756130        -1.345575
 H         1.978668         0.190561        -2.295135
 H         3.583169         2.143297        -0.978099
