19
Iteration:  3719charge 0 multiplicity 1
 C         0.099440        -0.312697        -0.298586
 C         1.563865        -0.090673        -0.046294
 C         2.289165        -0.750085         1.240150
 O         3.527415        -0.134309         1.353878
 C         4.125020         0.215500         0.079360
 C         3.853338        -0.903043        -0.873571
 C         2.509776        -0.229560        -1.182409
 C         3.093645         1.104894        -0.782719
 O         1.882879         1.456608        -0.024001
 H        -0.351603        -0.951700         0.507468
 H        -0.372916         0.548352         0.121722
 H        -0.224086        -0.634423        -1.355456
 H         1.585913        -0.731292         2.090368
 H         2.166719        -1.984149         0.969045
 H         5.248402         0.341690         0.297071
 H         4.526674        -0.855072        -1.720911
 H         3.777743        -1.958724        -0.546746
 H         2.090389        -0.579407        -2.160144
 H         3.542805         1.941569        -1.444397
