19
Iteration:  3580
 C         0.054775        -0.397407        -0.154484
 C         1.601550        -0.073963        -0.139845
 C         2.182553        -0.570464         1.143505
 O         3.538509        -0.036687         1.425719
 C         4.049914         0.150678         0.157397
 C         3.879014        -0.982982        -0.976196
 C         2.593370        -0.246336        -1.300897
 C         3.093038         1.059261        -0.700391
 O         1.924069         1.409494        -0.040756
 H        -0.298378        -1.421906        -0.294844
 H        -0.252003        -0.131041         0.860497
 H        -0.406085         0.339977        -0.802834
 H         1.469359        -0.539592         1.983364
 H         2.233364        -1.740080         1.133615
 H         5.120916         0.515509         0.418795
 H         4.682390        -0.764064        -1.771323
 H         3.775668        -2.029200        -0.691990
 H         2.161103        -0.520124        -2.277987
 H         3.627494         1.764185        -1.400537
