19
Iteration:  3682charge 0 multiplicity 1
 C         0.106906        -0.347207        -0.128910
 C         1.593566        -0.063674        -0.130354
 C         2.171222        -0.581185         1.165322
 O         3.481100        -0.124206         1.413738
 C         4.052907         0.142646         0.131790
 C         3.934583        -0.951620        -0.931129
 C         2.647496        -0.243119        -1.423014
 C         3.062776         1.084654        -0.755303
 O         1.877316         1.380375         0.019719
 H         0.124321        -1.387032         0.237330
 H        -0.235594         0.395237         0.677292
 H        -0.627937        -0.151435        -0.924735
 H         1.652025        -0.160475         2.050123
 H         2.225052        -1.831806         1.182298
 H         5.038291         0.506896         0.303925
 H         4.738478        -0.791429        -1.629778
 H         3.754291        -2.002874        -0.735326
 H         2.108510        -0.324412        -2.377762
 H         3.616549         1.860477        -1.196581
