19
Iteration:  3465
 C         0.141359        -0.405182        -0.199858
 C         1.564012        -0.005362        -0.072015
 C         2.236077        -0.626933         1.132352
 O         3.542716        -0.225812         1.377218
 C         4.122105         0.225158         0.153555
 C         3.824135        -0.965226        -0.849884
 C         2.532319        -0.193046        -1.336316
 C         3.102980         1.202954        -0.711745
 O         1.909499         1.396851        -0.028753
 H        -0.557358        -0.370704         0.680152
 H        -0.431551         0.355134        -0.890925
 H        -0.054671        -1.352880        -0.734110
 H         1.730544        -0.671172         2.136600
 H         2.182851        -1.733809         1.017929
 H         5.103921         0.586400         0.309238
 H         4.362626        -0.941431        -1.850628
 H         3.696084        -2.104576        -0.426552
 H         2.017662        -0.663006        -2.200747
 H         3.408719         2.074172        -1.341546
