19
Iteration:  2593charge 0 multiplicity 1
 C         0.038194        -0.289165        -0.346036
 C         1.598828        -0.123642        -0.008256
 C         2.156707        -0.830958         1.128066
 O         3.550502        -0.510313         1.266328
 C         4.220711         0.203627         0.105375
 C         3.985084        -0.654202        -1.198646
 C         2.587999        -0.046330        -1.248437
 C         3.060848         1.217682        -0.515842
 O         1.766328         1.333602         0.276045
 H        -0.078890        -0.412334        -1.443034
 H        -0.188739        -1.210474         0.235211
 H        -0.554231         0.678191        -0.017398
 H         1.622290        -0.516875         2.082368
 H         2.156242        -1.961548         1.013301
 H         5.131201         0.659300         0.579682
 H         4.489719        -0.067298        -2.023514
 H         4.169015        -1.696670        -1.182995
 H         1.993313         0.146820        -2.205101
 H         3.373850         2.163726        -1.035486
