19
Iteration:   415
 C         0.085454        -0.392196        -0.422159
 C         1.556033        -0.059155        -0.097303
 C         2.315491        -1.124565         0.756564
 O         3.563514        -0.610363         1.231428
 C         4.074136         0.164673         0.109612
 C         3.910437        -0.426703        -1.305838
 C         2.532138         0.338491        -1.322333
 C         3.045436         1.303283        -0.164810
 O         1.835001         1.219658         0.663278
 H         0.150073        -1.363825        -0.874388
 H        -0.740043        -0.422989         0.449343
 H        -0.321697         0.389410        -1.087345
 H         1.623860        -1.283947         1.626361
 H         2.483784        -2.179682         0.315086
 H         5.025520         0.633969         0.264384
 H         4.664442         0.070379        -2.010581
 H         3.864757        -1.530991        -1.446270
 H         2.103592         0.695520        -2.230672
 H         3.502972         2.277423        -0.276119
