19
Iteration:  4776
 C         0.009152        -0.394092        -0.192644
 C         1.540607         0.005434        -0.087299
 C         2.135534         0.042786         1.324718
 O         3.515204         0.576607         1.338994
 C         4.075288         0.090834         0.037039
 C         3.801056        -1.343297        -0.304974
 C         2.583579        -0.780727        -0.963621
 C         3.171191         0.675766        -1.143823
 O         2.079486         1.333847        -0.558465
 H        -0.231882        -1.432736        -0.759747
 H        -0.266661        -0.666245         0.883081
 H        -0.682763         0.352275        -0.648356
 H         1.643865         0.665937         2.038550
 H         2.120380        -0.974901         1.760092
 H         5.112057         0.500780         0.158362
 H         4.500569        -1.591962        -1.132285
 H         3.852637        -2.202858         0.410333
 H         1.907620        -1.383091        -1.706996
 H         3.703069         1.323312        -1.881822
