19
Iteration:  3154charge 0 multiplicity 1
 C         0.097196        -0.241974        -0.354195
 C         1.613816        -0.142202        -0.087844
 C         2.198441        -0.812148         1.143061
 O         3.533170        -0.235155         1.357338
 C         4.043521         0.190554         0.077800
 C         3.913749        -0.809603        -1.163528
 C         2.550199        -0.077112        -1.266236
 C         2.970176         1.136344        -0.609800
 O         1.955603         1.291508         0.319385
 H        -0.382602         0.195285         0.514565
 H        -0.244844         0.234528        -1.244417
 H        -0.043817        -1.359830        -0.507248
 H         1.728579        -0.543304         2.106343
 H         2.264523        -1.984059         1.030438
 H         5.137156         0.567205         0.214122
 H         4.546419        -0.396498        -1.971508
 H         3.974562        -1.865378        -0.817079
 H         2.075081        -0.019549        -2.267609
 H         3.442730         2.033200        -1.078393
