19
Iteration:  2451charge 0 multiplicity 1
 C         0.026210        -0.253494        -0.408713
 C         1.547223        -0.036323        -0.006634
 C         2.240584        -0.850852         1.185220
 O         3.680284        -0.490163         1.289749
 C         4.075010         0.212685         0.175437
 C         3.925994        -0.701794        -1.106985
 C         2.551996        -0.105534        -1.239793
 C         3.028802         1.194527        -0.566448
 O         1.832496         1.350744         0.142965
 H        -0.707967         0.120781         0.277654
 H        -0.355036         0.070723        -1.349583
 H        -0.273901        -1.367469        -0.246355
 H         1.877701        -0.556161         2.162527
 H         2.135695        -1.986793         1.204033
 H         5.019029         0.659405         0.423835
 H         4.451756        -0.083477        -1.964863
 H         4.293409        -1.672055        -0.821152
 H         2.194342         0.050381        -2.276100
 H         3.377799         2.167621        -1.046879
