19
Iteration:  3729
 C         0.123778        -0.288979        -0.277179
 C         1.579971        -0.059283         0.009302
 C         2.201627        -0.707820         1.220337
 O         3.571779        -0.152789         1.366415
 C         4.075585         0.205936         0.102454
 C         3.835669        -0.942303        -0.909130
 C         2.559767        -0.278904        -1.247654
 C         3.054813         1.093771        -0.791057
 O         1.892888         1.428903         0.030658
 H        -0.368915        -1.106434         0.311180
 H        -0.372974         0.660301        -0.316388
 H         0.033204        -0.552784        -1.394322
 H         1.730505        -0.547797         2.215736
 H         2.430248        -1.882784         1.020464
 H         5.059348         0.678089         0.194198
 H         4.483801        -0.746891        -1.688613
 H         3.948395        -1.951774        -0.502110
 H         2.111917        -0.411534        -2.267366
 H         3.299280         1.873551        -1.537494
