19
Iteration:  3414
 C         0.074131        -0.293496        -0.261927
 C         1.622407        -0.116297        -0.054125
 C         2.135190        -0.720072         1.208495
 O         3.513602        -0.189414         1.405455
 C         4.136844         0.177831         0.149225
 C         3.939148        -0.840387        -1.018689
 C         2.566760        -0.229701        -1.321288
 C         3.051190         1.128249        -0.743886
 O         1.912932         1.357045         0.074253
 H        -0.516164         0.611932        -0.195938
 H        -0.400168        -0.604165        -1.137908
 H        -0.256543        -0.909458         0.629581
 H         1.541348        -0.199480         1.997763
 H         2.163482        -1.802954         1.452443
 H         5.240260         0.417773         0.261925
 H         4.511314        -0.348478        -1.802411
 H         3.972584        -1.863412        -0.956614
 H         2.034343        -0.453623        -2.293573
 H         3.544064         1.888345        -1.453011
