19
Iteration:  4978charge 0 multiplicity 1
 C         0.021616        -0.275248        -0.100837
 C         1.560269         0.030914        -0.085899
 C         2.126444         0.171453         1.324768
 O         3.509138         0.623634         1.334998
 C         4.106928         0.194242         0.095825
 C         3.853048        -1.415001        -0.185348
 C         2.609217        -0.910505        -0.946661
 C         3.213325         0.561613        -1.092755
 O         1.951186         1.183910        -0.837932
 H        -0.397763        -1.059218        -0.777806
 H        -0.411232        -0.692299         0.867648
 H        -0.493324         0.773880        -0.404432
 H         1.501957         0.923189         1.890431
 H         2.169317        -0.725100         1.858919
 H         5.124555         0.645882        -0.020900
 H         4.614800        -1.753358        -0.874046
 H         3.733672        -1.980787         0.698833
 H         2.210040        -1.578832        -1.685311
 H         3.661071         0.946608        -1.980459
