19
Iteration:  4745
 C         0.115051        -0.255886        -0.156659
 C         1.611757        -0.034612        -0.030347
 C         2.130168        -0.024819         1.382571
 O         3.507195         0.472839         1.421806
 C         4.095140         0.159685         0.053487
 C         3.851303        -1.337281        -0.307495
 C         2.629577        -0.707562        -1.060000
 C         3.094186         0.676878        -1.171592
 O         1.913814         1.228390        -0.663602
 H        -0.111875        -1.359156         0.074258
 H        -0.330996         0.456747         0.629005
 H        -0.192327         0.159408        -1.126443
 H         1.571456         0.619741         2.123483
 H         2.049177        -1.096560         1.828738
 H         5.087211         0.660290         0.003304
 H         4.573802        -1.740132        -1.007599
 H         3.607060        -1.937784         0.483765
 H         2.043462        -1.011355        -2.004227
 H         3.607227         1.019095        -2.012117
