19
Iteration:  1730
 C         0.031896        -0.319798        -0.305826
 C         1.564012        -0.079564        -0.088345
 C         2.178060        -0.841850         1.107822
 O         3.562173        -0.358648         1.296746
 C         4.109568         0.231366         0.139422
 C         3.961017        -0.691688        -1.082385
 C         2.624597        -0.117162        -1.316654
 C         3.045779         1.160764        -0.510564
 O         1.855003         1.369460         0.205865
 H        -0.514395        -0.005032         0.591325
 H        -0.373674         0.115813        -1.273523
 H        -0.280537        -1.341517        -0.415740
 H         1.828733        -0.635347         2.055387
 H         2.041187        -1.968864         0.894189
 H         5.084441         0.560550         0.355136
 H         4.738373        -0.464868        -1.822318
 H         4.121506        -1.767107        -0.807811
 H         1.973075        -0.169073        -2.313690
 H         3.492333         2.089658        -0.953445
