19
Iteration:  3309charge 0 multiplicity 1
 C         0.021292        -0.359221        -0.164071
 C         1.541035        -0.017804        -0.078774
 C         2.120924        -0.728719         1.122723
 O         3.587952        -0.347214         1.314188
 C         4.143680         0.198069         0.187322
 C         3.923873        -0.757008        -1.017692
 C         2.547784        -0.172269        -1.308734
 C         3.109964         1.163118        -0.706197
 O         1.880047         1.372255         0.087330
 H        -0.187351        -1.012206        -1.029578
 H        -0.192600        -0.810439         0.783678
 H        -0.579843         0.535593        -0.268128
 H         1.678465        -0.389615         2.062512
 H         2.236382        -1.805392         0.990052
 H         5.051823         0.761048         0.459541
 H         4.712735        -0.725287        -1.795303
 H         4.053590        -1.884627        -0.878541
 H         2.199838        -0.258413        -2.293067
 H         3.598861         1.967177        -1.202599
