19
Iteration:  3160charge 0 multiplicity 1
 C         0.105753        -0.263777        -0.312912
 C         1.609615        -0.126774        -0.071917
 C         2.189922        -0.761906         1.125262
 O         3.514468        -0.268390         1.281729
 C         4.065239         0.212978         0.093083
 C         3.932596        -0.769029        -1.101963
 C         2.560176        -0.136191        -1.268436
 C         3.009994         1.112934        -0.584799
 O         1.927472         1.302330         0.305527
 H        -0.340073        -0.060288         0.693341
 H        -0.096939         0.432571        -1.210198
 H        -0.188875        -1.271986        -0.544933
 H         1.570723        -0.576886         2.015344
 H         2.140475        -1.803864         1.060805
 H         5.071591         0.462114         0.138025
 H         4.390549        -0.443476        -2.060080
 H         4.068653        -1.841734        -0.994711
 H         2.235013        -0.013075        -2.325692
 H         3.362940         2.043509        -1.029604
