19
Iteration:  2564charge 0 multiplicity 1
 C         0.036209        -0.324322        -0.408669
 C         1.611270        -0.205273        -0.054730
 C         2.132699        -0.783404         1.190140
 O         3.627596        -0.509716         1.254777
 C         4.090543         0.207520         0.111787
 C         3.910157        -0.650495        -1.154823
 C         2.593314        -0.023982        -1.353485
 C         3.042023         1.242151        -0.557342
 O         1.872488         1.364980         0.379574
 H        -0.168870        -0.023943        -1.463477
 H        -0.178734        -1.387975        -0.181322
 H        -0.329417         0.285652         0.323782
 H         1.545437        -0.418454         2.029895
 H         2.026445        -1.918337         1.259493
 H         4.953872         0.753700         0.401601
 H         4.597354        -0.203068        -1.920046
 H         4.022152        -1.778474        -0.969859
 H         2.015654         0.043577        -2.213218
 H         3.487390         2.099165        -1.015688
