19
Iteration:  4658
 C         0.136139        -0.356820        -0.205079
 C         1.632898        -0.037982        -0.028816
 C         2.173267        -0.071903         1.347930
 O         3.535431         0.455630         1.418381
 C         4.151156         0.267799         0.125048
 C         3.742154        -1.377830        -0.423564
 C         2.555636        -0.704297        -1.058519
 C         3.174211         0.734590        -1.113517
 O         1.889032         1.324392        -0.570902
 H        -0.439481         0.584348         0.072486
 H        -0.281519        -0.590492        -1.256261
 H        -0.243426        -1.223239         0.338951
 H         1.493553         0.539906         2.078101
 H         2.018739        -1.110276         1.752937
 H         5.234722         0.648990         0.093855
 H         4.389449        -1.996225        -1.127198
 H         3.462835        -2.064252         0.347198
 H         2.045326        -1.169775        -1.996544
 H         3.713028         1.172842        -1.936267
