19
Iteration:   643
 C         0.170794        -0.365860        -0.434980
 C         1.597061        -0.134808        -0.117985
 C         2.306317        -1.078790         0.866898
 O         3.528373        -0.445672         1.281974
 C         4.111434         0.170799         0.160936
 C         3.776807        -0.538272        -1.213533
 C         2.519929         0.205949        -1.293496
 C         3.030138         1.316170        -0.335111
 O         1.868938         1.238372         0.543564
 H        -0.282742        -1.142694         0.095733
 H        -0.347648         0.665501        -0.363679
 H         0.092329        -0.503065        -1.442197
 H         1.512207        -1.187013         1.705194
 H         2.546967        -2.059755         0.336541
 H         5.181170         0.374729         0.322857
 H         4.521957        -0.383853        -2.000908
 H         3.849555        -1.557220        -1.101621
 H         1.962043         0.513957        -2.312010
 H         3.419702         2.377922        -0.353513
