19
Iteration:   634
 C         0.075720        -0.353128        -0.412999
 C         1.592929        -0.136547        -0.087938
 C         2.339433        -1.081333         0.807335
 O         3.535238        -0.487275         1.258778
 C         4.069179         0.185037         0.133393
 C         3.857164        -0.555428        -1.155153
 C         2.505125         0.278958        -1.279743
 C         3.071216         1.319530        -0.285912
 O         1.891063         1.243509         0.470134
 H        -0.459720        -1.080992         0.149056
 H        -0.433295         0.574919        -0.433970
 H         0.039053        -0.792531        -1.424072
 H         1.800084        -1.184616         1.886253
 H         2.440829        -2.155018         0.400006
 H         5.072912         0.513941         0.494494
 H         4.576649        -0.301281        -1.907715
 H         3.842402        -1.666827        -1.018529
 H         1.801605         0.430143        -2.268901
 H         3.335287         2.363654        -0.484228
