19
Iteration:  3688
 C         0.090820        -0.333467        -0.106742
 C         1.565225        -0.022160        -0.108278
 C         2.182379        -0.612108         1.144405
 O         3.516058        -0.112567         1.412125
 C         4.023430         0.192480         0.088960
 C         3.923680        -0.972565        -0.902733
 C         2.661567        -0.219519        -1.384691
 C         3.071311         1.043546        -0.742096
 O         1.864781         1.361398         0.025492
 H        -0.068003        -1.356425         0.266178
 H        -0.326250         0.380464         0.574176
 H        -0.467545        -0.351629        -1.064148
 H         1.582843        -0.267547         2.007496
 H         2.211369        -1.593083         0.920309
 H         5.106943         0.444677         0.399256
 H         4.829770        -0.889213        -1.656590
 H         3.742921        -2.078402        -0.899292
 H         2.328160        -0.315115        -2.431115
 H         3.706123         1.830331        -1.315527
