19
Iteration:  1620charge 0 multiplicity 1
 C         0.099698        -0.295129        -0.351027
 C         1.552037        -0.084327        -0.061248
 C         2.279884        -0.892464         1.078344
 O         3.539689        -0.293966         1.368140
 C         4.152337         0.233131         0.175910
 C         3.901364        -0.823914        -1.063032
 C         2.518147        -0.042263        -1.284302
 C         3.019196         1.199447        -0.584602
 O         1.840950         1.357317         0.190299
 H        -0.565161        -0.448280         0.542641
 H        -0.229108         0.542633        -0.960958
 H         0.185707        -1.162717        -0.959734
 H         1.854263        -0.939542         2.071530
 H         2.408208        -1.931267         0.713311
 H         5.127026         0.586845         0.440757
 H         4.491317        -0.648214        -1.937327
 H         3.934407        -1.836227        -0.675545
 H         1.961668        -0.159755        -2.342016
 H         3.430510         2.143808        -1.070963
