19
Iteration:  3097charge 0 multiplicity 1
 C         0.092345        -0.432788        -0.130338
 C         1.532142         0.002882        -0.103430
 C         2.163686        -0.755425         1.063649
 O         3.521013        -0.432564         1.317537
 C         4.126627         0.176628         0.133197
 C         3.925218        -0.751741        -1.091466
 C         2.623407        -0.021339        -1.395136
 C         3.086902         1.202184        -0.597390
 O         1.856032         1.412408         0.205288
 H        -0.653066         0.311353         0.082793
 H        -0.143950        -0.704841        -1.196653
 H        -0.165561        -1.307033         0.479262
 H         1.700982        -0.495229         2.041189
 H         1.947159        -1.886394         0.802565
 H         5.098520         0.429721         0.585991
 H         4.643204        -0.724999        -1.937879
 H         3.992363        -1.778459        -0.804848
 H         2.246480         0.000043        -2.466085
 H         3.660120         2.128194        -0.830456
