19
Iteration:   512
 C         0.192998        -0.376338        -0.414068
 C         1.588962        -0.038658        -0.054008
 C         2.313894        -1.124403         0.828892
 O         3.555799        -0.569578         1.243987
 C         4.007448         0.141762         0.119907
 C         3.822240        -0.477642        -1.270392
 C         2.568480         0.357551        -1.320265
 C         2.995364         1.315167        -0.242485
 O         1.862471         1.227897         0.593247
 H        -0.137558         0.102055        -1.284882
 H         0.094495        -1.449668        -0.877230
 H        -0.477901        -0.176907         0.386570
 H         1.702912        -1.487071         1.782487
 H         2.431865        -2.012481         0.257164
 H         5.012952         0.369080         0.426161
 H         4.640253        -0.022255        -1.839944
 H         3.693600        -1.520928        -1.399948
 H         2.040201         0.485427        -2.415213
 H         3.397222         2.295978        -0.511399
