19
Iteration:  1761charge 0 multiplicity 1
 C         0.156501        -0.306619        -0.395616
 C         1.608343        -0.133865        -0.066118
 C         2.312375        -0.952546         1.085300
 O         3.493396        -0.176682         1.346878
 C         4.105661         0.202130         0.126593
 C         3.796212        -0.795517        -1.089341
 C         2.578221        -0.031449        -1.344916
 C         3.008170         1.233102        -0.520186
 O         1.895124         1.292178         0.301950
 H        -0.402527         0.553465         0.109402
 H        -0.120881        -0.106337        -1.463853
 H        -0.276962        -1.253687        -0.144798
 H         1.715568        -0.849806         1.944099
 H         2.285814        -2.059877         0.749075
 H         5.103798         0.381398         0.365438
 H         4.657119        -0.604344        -1.844973
 H         3.701969        -1.858670        -0.744245
 H         1.885768        -0.092269        -2.155111
 H         3.413825         2.154002        -1.065802
