19
Iteration:   978
 C         0.140351        -0.394090        -0.208788
 C         1.643440        -0.083638        -0.081154
 C         2.175371        -1.012940         0.956593
 O         3.523128        -0.600916         1.193337
 C         4.081541         0.197909         0.188804
 C         3.979318        -0.511740        -1.244545
 C         2.538395         0.211472        -1.309973
 C         3.066173         1.293472        -0.344190
 O         1.818178         1.304324         0.315090
 H        -0.172922        -0.129480        -1.299610
 H        -0.074736        -1.496415        -0.262562
 H        -0.591427         0.083971         0.476964
 H         1.523087        -0.826661         1.941353
 H         2.060167        -2.044236         0.768903
 H         5.044058         0.488941         0.616791
 H         4.646224        -0.126899        -1.949730
 H         4.142526        -1.592260        -1.151860
 H         2.168841         0.346005        -2.368658
 H         3.262828         2.320338        -0.712579
