19
Iteration:  1140
 C         0.034633        -0.324232        -0.436226
 C         1.559490        -0.120722        -0.069562
 C         2.294640        -1.070261         0.989022
 O         3.552524        -0.352673         1.285227
 C         4.116122         0.227588         0.129545
 C         3.836650        -0.621574        -1.159033
 C         2.549740         0.133876        -1.281160
 C         3.025507         1.295782        -0.428079
 O         1.903662         1.221822         0.468180
 H        -0.394365         0.673021        -0.198842
 H         0.035614        -0.503865        -1.493651
 H        -0.247927        -1.131464         0.214755
 H         1.746974        -1.247864         1.817566
 H         2.512432        -2.065071         0.443661
 H         5.183618         0.417212         0.245522
 H         4.675597        -0.352106        -1.935111
 H         3.757143        -1.819704        -1.251487
 H         2.121569         0.285311        -2.483340
 H         3.270678         2.281715        -0.659659
