19
Iteration:  1365charge 0 multiplicity 1
 C         0.158898        -0.399800        -0.450669
 C         1.530646        -0.076172        -0.071083
 C         2.234616        -0.878379         1.025708
 O         3.619957        -0.436239         1.324509
 C         4.111690         0.209522         0.145669
 C         3.842840        -0.735724        -1.091643
 C         2.524006         0.048690        -1.319509
 C         3.045789         1.265302        -0.490120
 O         1.843285         1.376824         0.360863
 H         0.292247        -1.284326        -1.040857
 H        -0.353203        -0.706039         0.452185
 H        -0.337311         0.525484        -0.849877
 H         1.693941        -0.536173         1.933957
 H         2.199261        -1.982682         0.937202
 H         5.096494         0.494060         0.491980
 H         4.475928        -0.615217        -2.001435
 H         3.688951        -1.776811        -0.876729
 H         2.074617         0.027087        -2.325785
 H         3.340639         2.294769        -0.987092
