19
Iteration:  4962
 C         0.066109        -0.284805        -0.066898
 C         1.542542        -0.021579        -0.078118
 C         2.122368         0.187314         1.342388
 O         3.460620         0.618952         1.308604
 C         4.128349         0.084690         0.182312
 C         3.891207        -1.298295        -0.207747
 C         2.580352        -0.868180        -0.932726
 C         3.178160         0.466818        -1.171091
 O         1.953012         1.283621        -0.859145
 H        -0.095830        -1.340374        -0.352517
 H        -0.280336        -0.101153         0.941623
 H        -0.404843         0.323920        -0.723826
 H         1.530765         0.904954         1.896788
 H         1.850721        -0.791892         1.957433
 H         5.130419         0.423785         0.446473
 H         4.639099        -1.485623        -1.093788
 H         3.989558        -2.260665         0.412163
 H         2.031175        -1.352493        -1.812695
 H         3.846187         0.761475        -2.046479
