19
Iteration:  3486
 C         0.174392        -0.338821        -0.322562
 C         1.579583        -0.070189        -0.061623
 C         2.233363        -0.699543         1.224618
 O         3.527877        -0.051014         1.387514
 C         4.048555         0.142468         0.075458
 C         3.869989        -0.961252        -0.986971
 C         2.530867        -0.232339        -1.250020
 C         3.094457         1.042079        -0.731222
 O         1.888653         1.440049         0.090556
 H        -0.490839        -0.750293         0.506366
 H        -0.485795         0.617411        -0.603020
 H         0.148536        -1.077605        -1.157355
 H         1.735921        -0.402655         2.193984
 H         2.246998        -1.800742         1.417716
 H         5.046386         0.457915         0.245538
 H         4.577114        -0.861293        -1.863328
 H         3.731539        -2.012140        -0.439603
 H         2.021854        -0.126006        -2.224673
 H         3.395624         1.843357        -1.426685
