19
Iteration:  4466
 C         0.101777        -0.321923        -0.197777
 C         1.568967        -0.033061        -0.017178
 C         2.104434        -0.147569         1.389211
 O         3.525760         0.191099         1.371130
 C         4.099498         0.139801         0.110819
 C         3.919986        -1.140632        -0.588816
 C         2.600667        -0.625887        -1.139145
 C         3.094721         0.838227        -1.053692
 O         1.941760         1.358406        -0.414916
 H        -0.498292         0.431806         0.342670
 H        -0.271875        -0.334696        -1.295945
 H        -0.143229        -1.309409         0.366328
 H         1.571181         0.380216         2.108629
 H         1.824694        -1.165364         1.544115
 H         5.100078         0.489832         0.296022
 H         4.669606        -1.287973        -1.276417
 H         3.773150        -2.022687         0.038994
 H         2.048585        -1.175336        -1.899822
 H         3.534489         1.401167        -1.914294
