19
Iteration:  3697charge 0 multiplicity 1
 C         0.050143        -0.339014        -0.100714
 C         1.542722        -0.017314        -0.084863
 C         2.202628        -0.660195         1.133741
 O         3.527560        -0.096584         1.375479
 C         4.095254         0.196411         0.154421
 C         3.886049        -1.001115        -0.942179
 C         2.614691        -0.221074        -1.327383
 C         3.136078         1.070817        -0.715668
 O         1.877869         1.386777        -0.029954
 H        -0.279538        -1.273012         0.400417
 H        -0.588492         0.392968         0.358529
 H        -0.094547        -0.390165        -1.223466
 H         1.517775        -0.660417         1.978391
 H         2.228523        -1.802537         0.909612
 H         5.107430         0.660553         0.217944
 H         4.648309        -0.903914        -1.681030
 H         3.890843        -2.036211        -0.504691
 H         2.328501        -0.255247        -2.402383
 H         3.388126         1.983805        -1.322348
