19
Iteration:  3130charge 0 multiplicity 1
 C         0.086210        -0.325742        -0.336871
 C         1.606778        -0.066351         0.007698
 C         2.308947        -0.872297         1.119153
 O         3.570075        -0.282855         1.340987
 C         4.106687         0.188028         0.126066
 C         3.768964        -0.806369        -1.039530
 C         2.528916        -0.027382        -1.331315
 C         3.071939         1.206397        -0.570757
 O         1.847433         1.350688         0.190384
 H        -0.492841         0.498914         0.018943
 H         0.070950        -0.235436        -1.458107
 H        -0.251027        -1.363936        -0.157226
 H         1.865965        -0.914864         2.135010
 H         2.435767        -1.954527         0.700661
 H         5.212634         0.286857         0.141970
 H         4.379898        -0.622634        -1.940050
 H         3.580241        -1.810364        -0.743140
 H         2.221382        -0.052048        -2.424160
 H         3.517594         2.222708        -0.789953
