19
Iteration:  3674charge 0 multiplicity 1
 C         0.133027        -0.355258        -0.116383
 C         1.614452        -0.100850        -0.163746
 C         2.158446        -0.612748         1.220390
 O         3.466153        -0.129434         1.389426
 C         4.102409         0.116849         0.185957
 C         3.907092        -0.935197        -0.987699
 C         2.584659        -0.238024        -1.399859
 C         3.094363         1.126702        -0.741412
 O         1.905771         1.399713        -0.033523
 H        -0.069481        -1.434874         0.140348
 H        -0.203350         0.134693         0.788171
 H        -0.484759         0.005580        -1.010592
 H         1.494309        -0.201460         1.975868
 H         2.060342        -1.696727         1.500094
 H         5.041108         0.581994         0.289016
 H         4.662372        -0.821559        -1.684738
 H         3.970320        -1.915169        -0.479694
 H         1.999101        -0.379070        -2.335580
 H         3.411810         2.080751        -1.185453
