19
Iteration:  1930charge 0 multiplicity 1
 C         0.055853        -0.401340        -0.264621
 C         1.603785        -0.046896        -0.047697
 C         2.138092        -0.763347         1.124244
 O         3.562821        -0.416509         1.332906
 C         4.147253         0.140020         0.168620
 C         4.012790        -0.769544        -1.134437
 C         2.650367        -0.000185        -1.297183
 C         3.017533         1.251440        -0.545119
 O         1.784125         1.414783         0.124785
 H        -0.592878        -0.390998         0.629785
 H        -0.584479         0.154266        -0.922820
 H        -0.051744        -1.507828        -0.542436
 H         1.552388        -0.472738         1.906144
 H         1.976252        -1.943382         1.019853
 H         5.254093         0.373100         0.432572
 H         4.694091        -0.486340        -1.925112
 H         4.026019        -1.933098        -1.000231
 H         2.032492        -0.027281        -2.306330
 H         3.599939         2.036282        -0.987845
