19
Iteration:   959charge 0 multiplicity 1
 C         0.084970        -0.460573        -0.295414
 C         1.556372        -0.033127        -0.095100
 C         2.199476        -0.854779         1.000825
 O         3.615267        -0.739305         1.197816
 C         4.071683         0.153407         0.182550
 C         4.017472        -0.523856        -1.185476
 C         2.630977         0.195999        -1.326566
 C         3.030632         1.277791        -0.360583
 O         1.723225         1.400273         0.329816
 H        -0.622801        -0.086306        -0.897529
 H         0.065135        -1.569780        -0.341175
 H        -0.180559        -0.168468         0.684612
 H         1.703472        -0.778155         1.936583
 H         2.011561        -1.909147         0.715448
 H         5.113221         0.525252         0.389974
 H         4.663767        -0.022085        -1.904365
 H         3.933632        -1.548109        -1.239855
 H         2.219410         0.308368        -2.511750
 H         3.539773         2.296965        -0.642693
