19
Iteration:  4759charge 0 multiplicity 1
 C         0.086608        -0.309274        -0.134852
 C         1.563577        -0.042220        -0.052708
 C         2.174571        -0.017661         1.357051
 O         3.504410         0.503665         1.280415
 C         4.164486         0.203599         0.124195
 C         3.779809        -1.294682        -0.328173
 C         2.519311        -0.787531        -1.065185
 C         3.215438         0.640919        -1.042145
 O         1.929763         1.300914        -0.630544
 H        -0.079666        -1.283411        -0.446885
 H        -0.533930        -0.118324         0.733595
 H        -0.280905         0.264427        -0.986768
 H         1.544041         0.748861         1.915633
 H         2.178196        -1.025242         1.830516
 H         5.219385         0.418384         0.232826
 H         4.534053        -1.760674        -0.976346
 H         3.661521        -1.991853         0.521950
 H         2.174492        -1.300198        -1.923856
 H         3.556678         1.169873        -1.955090
