19
Iteration:  2375
 C         0.165366        -0.360909        -0.304679
 C         1.528825        -0.016982        -0.028671
 C         2.230918        -0.810398         1.032514
 O         3.534723        -0.298354         1.385163
 C         4.137415         0.144074         0.137246
 C         3.847616        -0.888057        -1.073221
 C         2.566703         0.013376        -1.311717
 C         3.105218         1.239741        -0.553696
 O         1.812511         1.383984         0.184706
 H        -0.186506        -1.121737         0.423671
 H        -0.637109         0.357737        -0.343686
 H         0.134457        -1.050555        -1.221660
 H         1.721707        -0.848199         1.992790
 H         2.370045        -1.913573         0.862970
 H         5.118592         0.472626         0.356861
 H         4.684067        -0.629840        -1.925755
 H         3.660268        -1.988245        -0.926955
 H         2.100054         0.056063        -2.298140
 H         3.455721         2.145224        -1.133689
