19
Iteration:  4768charge 0 multiplicity 1
 C        -0.000761        -0.378114        -0.179723
 C         1.584423        -0.013258        -0.095756
 C         2.197670         0.011884         1.323132
 O         3.488756         0.541357         1.289036
 C         4.133290         0.101988         0.108256
 C         3.798222        -1.295299        -0.305811
 C         2.527398        -0.799959        -1.002905
 C         3.200318         0.724299        -1.081015
 O         2.003116         1.310278        -0.582553
 H        -0.060770        -1.404877        -0.576161
 H        -0.455359        -0.293589         0.863545
 H        -0.515587         0.405868        -0.754936
 H         1.581884         0.741928         1.968627
 H         2.161057        -1.008069         1.868955
 H         5.127366         0.503496        -0.015673
 H         4.442093        -1.617043        -1.116462
 H         3.647530        -2.019047         0.392054
 H         2.060694        -1.559494        -1.678260
 H         3.822644         1.121538        -1.808374
