19
Iteration:  2002
 C         0.127258        -0.333519        -0.366829
 C         1.559640        -0.084699        -0.105900
 C         2.239127        -0.866077         1.028531
 O         3.522264        -0.227835         1.368833
 C         4.147024         0.222156         0.156707
 C         3.865392        -0.797584        -1.127661
 C         2.503122        -0.067063        -1.281069
 C         3.084850         1.168856        -0.488074
 O         1.869754         1.312125         0.246528
 H        -0.479757         0.384499         0.174912
 H        -0.157558        -0.078693        -1.426146
 H        -0.262118        -1.329381        -0.042163
 H         1.765536        -0.945470         2.158666
 H         2.434095        -1.924685         0.895634
 H         5.086613         0.636061         0.349102
 H         4.718022        -0.583057        -1.784073
 H         3.735015        -1.847962        -1.044712
 H         2.090620         0.030104        -2.243638
 H         3.443071         2.098026        -0.995313
