19
Iteration:  1999charge 0 multiplicity 1
 C         0.111498        -0.325022        -0.368370
 C         1.558132        -0.086128        -0.075411
 C         2.218746        -0.849246         1.034825
 O         3.530844        -0.241275         1.360732
 C         4.125824         0.206761         0.133055
 C         3.887383        -0.797676        -1.127100
 C         2.533953        -0.062715        -1.269816
 C         3.100318         1.157597        -0.493750
 O         1.847290         1.307792         0.239454
 H        -0.508244         0.473845         0.165721
 H        -0.132668        -0.118089        -1.441469
 H        -0.117367        -1.314842        -0.054637
 H         1.783983        -0.856979         2.036479
 H         2.383855        -1.993577         0.964979
 H         5.192758         0.587410         0.361660
 H         4.677120        -0.462717        -1.850583
 H         3.939077        -1.833557        -0.952898
 H         1.909059         0.066465        -2.225974
 H         3.353866         2.155717        -0.931378
