19
Iteration:  4561
 C         0.035229        -0.297745        -0.210139
 C         1.530245        -0.061094        -0.066940
 C         2.140576        -0.230812         1.449189
 O         3.520113         0.331434         1.394474
 C         4.156742         0.159224         0.086692
 C         3.899597        -1.222508        -0.448111
 C         2.587400        -0.669960        -1.117076
 C         3.167204         0.778967        -1.138823
 O         1.900960         1.394341        -0.507266
 H        -0.285820        -1.147204        -0.736995
 H        -0.448433        -0.165431         0.751206
 H        -0.302127         0.536401        -0.768973
 H         1.476879         0.345367         2.209395
 H         2.226397        -1.241483         1.908996
 H         5.228122         0.521157         0.165527
 H         4.679586        -1.485085        -1.299413
 H         3.948104        -1.961808         0.407325
 H         1.908397        -1.063174        -1.825174
 H         3.593484         1.284193        -2.018401
