19
Iteration:  2081charge 0 multiplicity 1
 C         0.115133        -0.345951        -0.323799
 C         1.550498        -0.057343         0.009951
 C         2.103449        -0.709097         1.281197
 O         3.559856        -0.505277         1.310982
 C         4.116968         0.191493         0.182829
 C         3.967967        -0.661692        -1.164565
 C         2.638239        -0.072761        -1.351276
 C         3.030494         1.174769        -0.585789
 O         1.819626         1.343936         0.097550
 H        -0.504607        -0.736989         0.463140
 H        -0.405994         0.443009        -0.829928
 H        -0.076284        -1.202693        -1.083199
 H         1.892098        -0.159176         2.372146
 H         2.142092        -1.787071         1.362644
 H         5.072178         0.621164         0.419054
 H         4.658569        -0.346309        -1.939879
 H         4.181171        -1.748376        -0.963857
 H         2.106016        -0.129835        -2.309343
 H         3.550954         2.079809        -0.939998
