19
Iteration:  2427charge 0 multiplicity 1
 C         0.190403        -0.356511        -0.321917
 C         1.561115        -0.071459         0.039889
 C         2.151011        -0.793033         1.066754
 O         3.523360        -0.376853         1.312510
 C         4.114013         0.182310         0.123206
 C         3.937705        -0.735347        -1.132964
 C         2.603207        -0.079573        -1.325466
 C         3.028108         1.185158        -0.572335
 O         1.845006         1.372623         0.234479
 H        -0.333078        -0.393047         0.618022
 H        -0.251106         0.498017        -0.741787
 H        -0.245264        -1.283748        -0.758683
 H         1.657060        -0.572910         2.046446
 H         2.005734        -1.900361         0.949372
 H         5.151392         0.569318         0.406430
 H         4.660592        -0.544434        -1.948557
 H         3.979415        -1.695123        -0.710804
 H         2.060431        -0.035727        -2.342472
 H         3.358988         2.136397        -1.122786
