19
Iteration:  4793charge 0 multiplicity 1
 C         0.120670        -0.396692        -0.158409
 C         1.572163         0.048366        -0.014709
 C         2.099146         0.057624         1.399765
 O         3.459019         0.515130         1.302767
 C         4.153307         0.176910         0.120232
 C         3.827592        -1.329452        -0.362339
 C         2.495788        -0.780701        -1.050973
 C         3.168458         0.585367        -1.115024
 O         2.024672         1.340026        -0.613141
 H         0.105846        -0.908395        -1.047234
 H        -0.247227        -1.014168         0.627859
 H        -0.468283         0.511891        -0.205086
 H         1.512203         0.782814         2.038651
 H         2.042563        -0.938264         1.936461
 H         5.172406         0.602120         0.110790
 H         4.529422        -1.729737        -1.098832
 H         3.589172        -2.066624         0.477785
 H         2.088249        -1.215032        -1.912747
 H         3.658000         0.672498        -2.140747
