19
Iteration:  1524
 C         0.139398        -0.376360        -0.445520
 C         1.604634        -0.054839        -0.045294
 C         2.238969        -0.878140         1.065600
 O         3.582139        -0.305158         1.322285
 C         4.097731         0.201254         0.112678
 C         3.797509        -0.801547        -1.012922
 C         2.503470         0.014439        -1.335460
 C         3.041606         1.250279        -0.534243
 O         1.903817         1.329578         0.294844
 H        -0.404854         0.466392        -0.959249
 H         0.118497        -1.314793        -1.145487
 H        -0.495725        -0.611253         0.453775
 H         1.684043        -0.926149         2.116993
 H         2.475815        -1.880966         0.757836
 H         5.045983         0.552959         0.494809
 H         4.459830        -0.645471        -1.843921
 H         3.681607        -1.889847        -0.719450
 H         2.089495         0.070693        -2.225783
 H         3.456218         2.221527        -0.785844
