19
Iteration:  1698charge 0 multiplicity 1
 C         0.129890        -0.411926        -0.218210
 C         1.633964         0.008812        -0.081363
 C         2.098342        -0.761513         1.108178
 O         3.576925        -0.541007         1.338552
 C         4.082704         0.207186         0.204630
 C         3.941529        -0.650307        -1.077744
 C         2.601631        -0.079806        -1.316458
 C         3.063992         1.175768        -0.571134
 O         1.799428         1.427272         0.063040
 H        -0.240586        -0.673754         0.756308
 H        -0.520888         0.455552        -0.583503
 H         0.109536        -1.309160        -0.824678
 H         1.818340        -0.514799         2.105225
 H         1.883449        -1.817152         0.910834
 H         5.063359         0.580273         0.349489
 H         4.671114        -0.367662        -1.770695
 H         4.024637        -1.742654        -0.862729
 H         2.022484        -0.044296        -2.391028
 H         3.485231         2.083353        -1.020567
