19
Iteration:  3359
 C         0.118585        -0.386303        -0.295223
 C         1.619436        -0.073475        -0.028894
 C         2.264525        -0.715254         1.130276
 O         3.570590        -0.226935         1.433662
 C         4.101931         0.169733         0.129496
 C         3.800470        -0.878197        -0.970869
 C         2.530302        -0.106196        -1.335919
 C         3.017622         1.183499        -0.665958
 O         1.887248         1.377816         0.078128
 H        -0.031290        -0.137949        -1.357363
 H        -0.142352        -1.448483        -0.139090
 H        -0.567509         0.324616         0.319098
 H         1.697496        -0.427776         2.028722
 H         2.424448        -1.778768         0.889445
 H         5.204970         0.307160         0.332086
 H         4.464705        -1.015038        -1.835671
 H         3.775446        -1.912567        -0.741333
 H         1.926353        -0.048062        -2.347873
 H         3.452824         2.094408        -1.215850
