19
Iteration:  4492charge 0 multiplicity 1
 C         0.090650        -0.343710        -0.149874
 C         1.562975        -0.020997        -0.072220
 C         2.117801        -0.160328         1.346945
 O         3.562169         0.225515         1.439040
 C         4.116828         0.197939         0.077460
 C         3.876837        -1.210718        -0.551778
 C         2.541358        -0.599897        -1.165723
 C         3.217809         0.819713        -0.966244
 O         1.877765         1.340423        -0.509050
 H        -0.363778        -0.283598         0.875515
 H        -0.398780         0.405606        -0.721852
 H        -0.123480        -1.374916        -0.507816
 H         1.460151         0.462527         2.087936
 H         1.826306        -1.222178         1.574500
 H         5.107257         0.661285         0.219425
 H         4.629903        -1.654003        -1.330563
 H         3.763776        -2.011715         0.196491
 H         2.020101        -0.963811        -2.158225
 H         3.717166         1.448709        -1.689339
