19
Iteration:  4966charge 0 multiplicity 1
 C         0.030920        -0.293838        -0.066175
 C         1.569779        -0.032030        -0.098067
 C         2.122710         0.178243         1.347928
 O         3.486592         0.621167         1.294223
 C         4.077528         0.099999         0.189110
 C         3.893287        -1.319970        -0.217421
 C         2.595425        -0.889641        -0.913549
 C         3.217259         0.481763        -1.149336
 O         1.924756         1.292977        -0.859163
 H        -0.096576        -1.271284        -0.565708
 H        -0.303188        -0.142061         1.012979
 H        -0.553469         0.531631        -0.703475
 H         1.605361         0.980819         1.949115
 H         1.949984        -0.749477         1.830989
 H         5.155785         0.338618         0.294351
 H         4.712519        -1.512296        -0.948076
 H         3.956022        -2.153007         0.434662
 H         2.105867        -1.387266        -1.757370
 H         3.766816         0.756356        -1.984135
