19
Iteration:  3693
 C         0.070848        -0.337601        -0.100753
 C         1.545419        -0.008373        -0.098562
 C         2.196369        -0.627118         1.141548
 O         3.532211        -0.100757         1.389538
 C         4.056045         0.207261         0.122140
 C         3.902551        -0.995065        -0.926419
 C         2.640606        -0.212384        -1.348281
 C         3.114557         1.051760        -0.730071
 O         1.869152         1.368978        -0.001198
 H        -0.257417        -1.295577         0.353565
 H        -0.529245         0.401649         0.538577
 H        -0.171619        -0.415962        -1.177291
 H         1.476132        -0.510673         1.980392
 H         2.185953        -1.811149         0.829092
 H         5.046527         0.530862         0.291269
 H         4.733652        -0.923790        -1.635501
 H         3.837650        -2.068366        -0.725697
 H         2.411110        -0.286492        -2.412871
 H         3.492687         1.848709        -1.301964
