19
Iteration:   931charge 0 multiplicity 1
 C         0.151308        -0.438575        -0.373895
 C         1.576694        -0.141340        -0.019033
 C         2.187807        -0.900565         1.013199
 O         3.584523        -0.620216         1.210354
 C         4.127352         0.207892         0.152047
 C         3.911776        -0.512322        -1.187600
 C         2.540407         0.185292        -1.296238
 C         3.077977         1.278900        -0.349752
 O         1.800753         1.351013         0.315784
 H        -0.461631         0.483604        -0.810470
 H         0.041378        -1.277816        -1.074908
 H        -0.423948        -0.681340         0.605830
 H         1.630033        -0.734470         2.007427
 H         2.039112        -2.015626         0.874373
 H         5.156200         0.459811         0.353222
 H         4.546801        -0.230442        -2.101369
 H         3.781714        -1.667219        -1.189272
 H         2.112938         0.267499        -2.203155
 H         3.499002         2.236707        -0.469088
