19
Iteration:   873charge 0 multiplicity 1
 C         0.076169        -0.250905        -0.378972
 C         1.555684        -0.125647        -0.055180
 C         2.322481        -1.121917         0.919564
 O         3.559382        -0.437170         1.262921
 C         4.116760         0.242397         0.144314
 C         3.924199        -0.671806        -1.120555
 C         2.545224         0.155835        -1.285521
 C         3.035321         1.294289        -0.408287
 O         1.777936         1.290066         0.397378
 H        -0.245609         0.622520        -0.886885
 H        -0.097873        -1.215690        -0.977935
 H        -0.529364        -0.469055         0.535292
 H         1.768743        -1.079812         1.786231
 H         2.500423        -2.163403         0.407670
 H         5.168832         0.499541         0.473032
 H         4.654327        -0.325474        -2.045452
 H         3.967434        -1.794460        -1.115878
 H         2.158047         0.322038        -2.229121
 H         3.307910         2.377652        -0.613935
