19
Iteration:   156charge 0 multiplicity 1
 C         0.021015        -0.321567        -0.440829
 C         1.526029        -0.112734        -0.099257
 C         2.359215        -1.159533         0.679182
 O         3.596291        -0.567829         1.169166
 C         4.181741         0.193967         0.117103
 C         3.896090        -0.391327        -1.265701
 C         2.495388         0.384549        -1.276069
 C         3.014937         1.308181        -0.136253
 O         1.802703         1.100625         0.712284
 H        -0.470606        -0.530916         0.492873
 H        -0.313671         0.554001        -0.807618
 H        -0.207991        -1.122291        -1.274506
 H         1.948159        -1.634281         1.627150
 H         2.634919        -2.080449         0.056644
 H         5.250583         0.405572         0.413865
 H         4.581952         0.002661        -1.925065
 H         3.889366        -1.498474        -1.319497
 H         2.190827         0.891061        -2.252490
 H         3.140566         2.348367        -0.362376
