19
Iteration:   187
 C         0.184593        -0.310457        -0.280332
 C         1.643611        -0.100149        -0.111959
 C         2.222571        -1.250246         0.696595
 O         3.522703        -0.758208         1.102767
 C         4.075665         0.257467         0.261698
 C         3.941693        -0.214842        -1.282661
 C         2.532191         0.269433        -1.278070
 C         3.022253         1.367810        -0.233231
 O         1.799326         1.156365         0.578691
 H        -0.145189        -0.156394         0.692350
 H        -0.387801         0.498879        -0.747846
 H        -0.195203        -1.298068        -0.627344
 H         1.705462        -1.490819         1.602995
 H         2.344885        -2.122750         0.026235
 H         5.038371         0.568456         0.672579
 H         4.521208         0.442810        -1.834042
 H         4.117644        -1.239240        -1.501776
 H         2.208887         0.479576        -2.255036
 H         3.130347         2.390096        -0.514688
