19
Iteration:  1020
 C         0.098589        -0.206052        -0.441824
 C         1.521235        -0.099782        -0.038452
 C         2.415254        -1.084736         0.878714
 O         3.557787        -0.416239         1.286312
 C         4.077453         0.258690         0.090961
 C         3.874227        -0.624138        -1.146386
 C         2.524456         0.106457        -1.286171
 C         3.029320         1.306288        -0.370433
 O         1.801896         1.167014         0.495649
 H        -0.047019         0.166646        -1.559368
 H        -0.226309        -1.257611        -0.326457
 H        -0.526612         0.376209         0.294019
 H         1.889736        -1.369587         1.873714
 H         2.683731        -2.075625         0.330892
 H         5.070799         0.578948         0.336083
 H         4.558970        -0.401997        -2.051861
 H         3.952327        -1.806650        -1.129652
 H         2.016825         0.324614        -2.095329
 H         3.346094         2.257435        -0.733576
