19
Iteration:  4379
 C         0.090175        -0.357460        -0.160568
 C         1.558355         0.022641        -0.076813
 C         2.125892        -0.288113         1.311546
 O         3.487516         0.172190         1.434146
 C         4.116397         0.122370         0.096602
 C         3.895092        -1.154070        -0.614987
 C         2.577680        -0.566563        -1.178495
 C         3.139057         0.932751        -0.980137
 O         1.932064         1.371502        -0.398143
 H        -0.131393        -1.171914        -0.842062
 H        -0.143317        -0.700001         0.876433
 H        -0.565442         0.534649        -0.293572
 H         1.703731         0.317497         2.077149
 H         2.155838        -1.346411         1.629764
 H         5.107596         0.501745         0.299362
 H         4.535532        -1.212594        -1.438742
 H         3.987963        -2.138087        -0.117896
 H         2.042874        -0.909214        -2.081679
 H         3.525850         1.593183        -1.798663
