19
Iteration:  4249charge 0 multiplicity 1
 C         0.010066        -0.309873        -0.129592
 C         1.537176        -0.023857        -0.050125
 C         2.160823        -0.418044         1.320969
 O         3.517523         0.020366         1.390007
 C         4.136761         0.230862         0.112025
 C         3.905095        -1.123729        -0.703777
 C         2.647120        -0.485326        -1.218959
 C         3.111880         1.004684        -0.953118
 O         1.916306         1.385931        -0.315845
 H        -0.562670         0.542823        -0.338477
 H        -0.165157        -1.033548        -0.886852
 H        -0.328160        -0.794909         0.796608
 H         1.575916         0.215860         2.099007
 H         1.992971        -1.477925         1.630303
 H         5.162074         0.625097         0.282084
 H         4.564852        -1.091025        -1.657171
 H         3.810520        -2.122793        -0.100840
 H         2.246619        -0.871387        -2.238908
 H         3.621331         1.713340        -1.646323
