19
Iteration:  2662
 C         0.094618        -0.369405        -0.283876
 C         1.548729        -0.102923        -0.094600
 C         2.215192        -0.881071         1.134494
 O         3.515892        -0.324668         1.294645
 C         4.056797         0.160032         0.133650
 C         3.903401        -0.699682        -1.187794
 C         2.568452         0.065449        -1.367893
 C         3.149293         1.229449        -0.491477
 O         1.868318         1.285402         0.315503
 H        -0.006482        -0.615300        -1.417427
 H        -0.209735        -1.286038         0.373348
 H        -0.523783         0.493003        -0.101065
 H         1.504020        -0.675715         1.937685
 H         2.255958        -1.980665         0.859168
 H         5.079768         0.402203         0.298454
 H         4.596918        -0.286819        -1.990420
 H         3.960382        -1.842498        -0.968552
 H         2.111047         0.158414        -2.325055
 H         3.609408         2.130173        -0.860450
