19
Iteration:  1509
 C         0.201409        -0.342675        -0.404035
 C         1.576020        -0.107212        -0.079684
 C         2.284658        -0.906660         1.081334
 O         3.482653        -0.256630         1.319681
 C         4.070264         0.171319         0.115416
 C         3.822416        -0.774813        -1.100364
 C         2.567692         0.017788        -1.325767
 C         3.060802         1.242825        -0.502896
 O         1.876577         1.307300         0.364699
 H        -0.018147         0.276416        -1.369525
 H         0.066448        -1.348684        -0.717205
 H        -0.509297        -0.219160         0.408277
 H         1.649915        -0.627752         1.973146
 H         2.261259        -2.019847         0.980316
 H         5.132134         0.445281         0.106586
 H         4.613360        -0.703189        -1.872289
 H         3.732578        -1.814562        -0.874350
 H         1.917261        -0.032648        -2.345591
 H         3.371051         2.320131        -0.964907
