19
Iteration:  4105
 C         0.026844        -0.320416        -0.220754
 C         1.555390        -0.058487        -0.092586
 C         2.148500        -0.401664         1.253449
 O         3.539499        -0.014657         1.391395
 C         4.135648         0.130963         0.149628
 C         3.969663        -1.006386        -0.863783
 C         2.558227        -0.389317        -1.222068
 C         3.078221         0.922643        -0.852275
 O         1.918951         1.356889        -0.101003
 H        -0.238083        -0.908048         0.637644
 H        -0.550594         0.606794        -0.176813
 H        -0.241257        -0.853769        -1.055499
 H         1.812108         0.183279         2.097577
 H         2.164633        -1.391640         1.548051
 H         5.196442         0.531119         0.320524
 H         4.499374        -0.673395        -1.721950
 H         3.858144        -2.012242        -0.501017
 H         2.097429        -0.407037        -2.232015
 H         3.363365         1.616206        -1.718554
