19
Iteration:  1684
 C         0.109975        -0.443787        -0.258114
 C         1.523063        -0.061493        -0.123037
 C         2.225455        -0.733110         1.144305
 O         3.564237        -0.455254         1.322190
 C         4.087904         0.173880         0.170375
 C         3.943518        -0.772645        -1.054776
 C         2.545004        -0.043908        -1.353999
 C         3.077759         1.242222        -0.511553
 O         1.842009         1.449681         0.126572
 H        -0.333534        -0.971773         0.689152
 H        -0.498150         0.366107        -0.636034
 H        -0.114582        -1.134038        -1.068148
 H         1.593829        -0.311091         1.851202
 H         2.127539        -1.891957         1.147995
 H         5.009535         0.532884         0.584230
 H         4.659876        -0.464831        -1.948453
 H         4.100979        -1.873195        -0.974522
 H         2.112998         0.008712        -2.431528
 H         3.652861         2.185988        -0.880513
