19
Iteration:  1242
 C         0.159158        -0.438401        -0.422139
 C         1.617711        -0.081961        -0.085154
 C         2.194628        -0.937163         1.121699
 O         3.541826        -0.467537         1.318161
 C         4.084876         0.134642         0.101563
 C         3.836446        -0.611410        -1.261852
 C         2.593823         0.168100        -1.307721
 C         3.030194         1.284631        -0.435833
 O         1.866737         1.316885         0.400274
 H        -0.424502        -0.026448         0.356207
 H        -0.055723         0.053395        -1.444554
 H         0.034464        -1.510088        -0.464447
 H         1.705526        -0.863613         2.057000
 H         2.151998        -2.026404         0.867495
 H         5.091510         0.577160         0.307930
 H         4.573949        -0.231625        -1.970329
 H         3.943118        -1.742807        -1.100206
 H         1.804718         0.347241        -2.164329
 H         3.399978         2.298722        -0.785745
