19
Iteration:  4913
 C         0.043639        -0.306982        -0.205145
 C         1.567373        -0.055251        -0.064246
 C         2.190012         0.125325         1.328359
 O         3.571592         0.577566         1.292363
 C         4.183407         0.127167         0.108566
 C         3.797808        -1.360682        -0.169971
 C         2.561837        -0.820858        -0.930660
 C         3.139618         0.624215        -1.141046
 O         1.911456         1.261538        -0.709128
 H        -0.540919        -0.586849         0.690442
 H        -0.432733         0.555238        -0.713625
 H         0.126201        -1.233044        -0.932723
 H         1.648060         0.920998         1.906059
 H         1.912861        -0.789231         1.932004
 H         5.249012         0.445735         0.174306
 H         4.528287        -1.917572        -0.683625
 H         3.575510        -1.841450         0.761139
 H         2.114532        -1.266448        -1.768246
 H         3.256841         1.003982        -2.168795
