19
Iteration:  3113
 C         0.107987        -0.389907        -0.306358
 C         1.576507        -0.026291        -0.112910
 C         2.243447        -0.835447         1.016219
 O         3.609121        -0.358414         1.320418
 C         4.131964         0.169691         0.140864
 C         3.888284        -0.883610        -1.036321
 C         2.503137         0.010541        -1.274608
 C         3.099078         1.217333        -0.501610
 O         1.801663         1.453312         0.189817
 H        -0.426123         0.417953         0.277145
 H        -0.198613        -0.591585        -1.311362
 H        -0.123593        -1.213238         0.420138
 H         1.525421        -0.785020         1.835937
 H         2.302797        -1.876915         0.831767
 H         5.137753         0.677288         0.237279
 H         4.626575        -0.799738        -1.851047
 H         3.694946        -2.009856        -0.758238
 H         1.907080         0.149542        -2.146177
 H         3.343523         2.061446        -1.130111
