19
Iteration:  4597
 C         0.075320        -0.284778        -0.136446
 C         1.609833        -0.022282        -0.017104
 C         2.097978        -0.083061         1.408330
 O         3.480115         0.326825         1.359956
 C         4.075693         0.151475         0.095746
 C         3.921972        -1.231785        -0.464900
 C         2.596226        -0.688601        -1.139626
 C         3.181257         0.709958        -1.092003
 O         1.904673         1.326187        -0.550099
 H        -0.301368        -0.199897        -1.142633
 H        -0.143579        -1.317297         0.221622
 H        -0.420880         0.529017         0.480783
 H         1.562234         0.652323         1.961459
 H         1.976995        -1.180763         1.790501
 H         5.053209         0.503001         0.304844
 H         4.735872        -1.407124        -1.167900
 H         3.936740        -2.152548         0.226719
 H         2.086093        -1.142497        -1.949958
 H         3.623250         1.363454        -1.886291
