19
Iteration:  2912charge 0 multiplicity 1
 C         0.086973        -0.289189        -0.340862
 C         1.530841        -0.107920        -0.045645
 C         2.173057        -0.928110         1.165206
 O         3.575936        -0.263053         1.289761
 C         4.125854         0.108406         0.090562
 C         3.944715        -0.686776        -1.164056
 C         2.546326        -0.026703        -1.349213
 C         3.024445         1.204858        -0.485981
 O         1.894226         1.310913         0.292283
 H        -0.026839        -0.375381        -1.417383
 H        -0.233843        -1.225559         0.182044
 H        -0.494411         0.475175         0.100077
 H         1.619498        -0.710488         2.086309
 H         2.242438        -2.007181         0.862656
 H         5.157512         0.355576         0.354335
 H         4.683120        -0.293440        -1.923492
 H         4.089162        -1.782808        -1.179362
 H         1.951930        -0.054434        -2.297810
 H         3.267088         2.249033        -0.843342
