19
Iteration:  2953charge 0 multiplicity 1
 C         0.137736        -0.338932        -0.249036
 C         1.575389        -0.075543        -0.063691
 C         2.200425        -0.812771         1.114936
 O         3.581408        -0.604070         1.208212
 C         4.088678         0.221416         0.121156
 C         3.941388        -0.662982        -1.058459
 C         2.591394        -0.101851        -1.298635
 C         2.990975         1.216673        -0.499093
 O         1.773775         1.496083         0.172006
 H        -0.443038         0.179822        -1.086199
 H         0.093494        -1.439875        -0.381580
 H        -0.405135        -0.056700         0.634617
 H         1.878900        -0.295995         2.041107
 H         2.040637        -1.832362         1.272775
 H         5.062748         0.568837         0.279462
 H         4.716424        -0.454001        -1.828804
 H         4.269893        -1.668039        -0.879770
 H         2.153056         0.024281        -2.346356
 H         3.596370         2.035401        -0.927045
