19
Iteration:  4330charge 0 multiplicity 1
 C         0.135430        -0.326517        -0.269631
 C         1.613769        -0.055877        -0.053222
 C         2.076037        -0.300716         1.371024
 O         3.575679         0.106809         1.378371
 C         4.116209         0.229914         0.064361
 C         3.828306        -1.158934        -0.667917
 C         2.603952        -0.548090        -1.145868
 C         3.104590         0.940828        -0.990639
 O         1.872004         1.394649        -0.260534
 H        -0.081576        -1.111435         0.560659
 H        -0.471594         0.622349        -0.042165
 H        -0.203729        -0.759066        -1.234512
 H         1.747878         0.296406         2.223250
 H         2.083422        -1.369462         1.635643
 H         5.088141         0.653745         0.380976
 H         4.520996        -1.421499        -1.535921
 H         3.724569        -2.095327        -0.156628
 H         2.053290        -0.985072        -1.980418
 H         3.601942         1.485776        -1.778760
