19
Iteration:   284charge 0 multiplicity 1
 C         0.062532        -0.384152        -0.471147
 C         1.539770        -0.098931        -0.043777
 C         2.356390        -1.187191         0.702355
 O         3.551174        -0.626260         1.177678
 C         4.137818         0.185140         0.132390
 C         3.866205        -0.388542        -1.296056
 C         2.519557         0.405188        -1.219720
 C         3.087679         1.341434        -0.147162
 O         1.804840         1.177030         0.658616
 H        -0.697137        -0.527539         0.287796
 H        -0.347833         0.652578        -0.900568
 H        -0.043733        -1.197096        -1.202774
 H         1.896740        -1.467432         1.610762
 H         2.608327        -2.095230         0.114468
 H         5.163804         0.372052         0.404106
 H         4.574153         0.094275        -2.100996
 H         3.885621        -1.484395        -1.434216
 H         1.944184         0.693407        -2.029574
 H         3.442103         2.350030        -0.321142
