19
Iteration:  4544
 C         0.100345        -0.279779        -0.181264
 C         1.578229        -0.004718        -0.013272
 C         2.173121        -0.185311         1.337780
 O         3.460624         0.347531         1.330458
 C         4.065377         0.210564         0.086804
 C         3.838918        -1.220169        -0.486887
 C         2.582760        -0.669481        -1.103623
 C         3.116048         0.751391        -1.013961
 O         2.007764         1.297792        -0.459395
 H         0.038568        -1.401234        -0.064685
 H        -0.587385         0.076602         0.660115
 H        -0.224541         0.175245        -1.197656
 H         1.608342         0.382295         2.021034
 H         2.097877        -1.280623         1.513645
 H         5.016605         0.639449         0.254462
 H         4.538087        -1.553214        -1.165694
 H         3.738708        -2.124421         0.111642
 H         2.271048        -1.145154        -2.098245
 H         3.517351         1.386232        -1.828344
