19
Iteration:  2552charge 0 multiplicity 1
 C         0.182993        -0.342546        -0.324400
 C         1.591115        -0.074651        -0.090474
 C         2.219425        -0.868635         1.141317
 O         3.543637        -0.494733         1.302118
 C         4.119307         0.232983         0.117977
 C         3.920923        -0.701098        -1.139869
 C         2.506951         0.025839        -1.290843
 C         3.001509         1.237053        -0.520698
 O         1.864251         1.363210         0.275914
 H        -0.145145         0.129843        -1.289745
 H        -0.178953        -1.386867        -0.452451
 H        -0.538049         0.080478         0.302184
 H         1.718427        -0.421592         1.983227
 H         2.089314        -2.009906         1.063707
 H         5.100125         0.459922         0.379032
 H         4.640045        -0.531480        -2.013778
 H         3.889427        -1.836924        -1.081172
 H         2.082928         0.021488        -2.239249
 H         3.275125         2.180052        -0.938112
