19
Iteration:  4819charge 0 multiplicity 1
 C         0.086467        -0.267345        -0.115984
 C         1.582632         0.006396        -0.089304
 C         2.093348         0.093608         1.362035
 O         3.580280         0.441971         1.410989
 C         4.095553         0.191785         0.112678
 C         3.846633        -1.373741        -0.253557
 C         2.581104        -0.849917        -1.040672
 C         3.140011         0.741347        -1.134248
 O         1.897112         1.222812        -0.740392
 H        -0.252059        -0.000993        -1.200291
 H        -0.222669        -1.313743         0.090979
 H        -0.320840         0.493141         0.548961
 H         1.543758         0.767357         1.965148
 H         2.018487        -0.842572         1.856421
 H         5.197496         0.431620         0.041763
 H         4.630192        -1.616226        -1.037260
 H         3.845790        -2.183712         0.603450
 H         2.175979        -1.386996        -1.977225
 H         3.601759         1.217710        -2.069978
