19
Iteration:    51
 C         0.192932        -0.303701        -0.313450
 C         1.663717        -0.160061        -0.095161
 C         2.263069        -1.248144         0.716483
 O         3.601344        -0.750088         1.132425
 C         4.082758         0.254232         0.167964
 C         3.891815        -0.245258        -1.275975
 C         2.520747         0.352782        -1.343231
 C         2.948797         1.379816        -0.181028
 O         1.761087         1.136455         0.613578
 H        -0.335673         0.066907         0.628757
 H        -0.205048         0.603118        -0.942406
 H        -0.102992        -1.287304        -0.530603
 H         1.683416        -1.434070         1.621917
 H         2.460226        -2.124755         0.067689
 H         5.082995         0.558088         0.533888
 H         4.654511         0.185237        -2.005412
 H         3.926250        -1.371228        -1.278820
 H         1.915346         0.487943        -2.270860
 H         3.318245         2.448825        -0.186144
