19
Iteration:  4122
 C         0.124617        -0.301256        -0.136641
 C         1.575288        -0.056188        -0.016130
 C         2.113411        -0.471815         1.333804
 O         3.503885        -0.044041         1.378737
 C         4.130009         0.184713         0.074543
 C         3.937101        -1.049095        -0.865929
 C         2.580222        -0.447436        -1.236928
 C         3.112507         1.040260        -0.865854
 O         1.878497         1.420194        -0.213927
 H        -0.302255        -1.219678         0.384540
 H        -0.365009         0.583369         0.288600
 H        -0.129410        -0.434361        -1.281636
 H         1.421358         0.004430         2.053655
 H         1.900089        -1.625537         1.357601
 H         5.109264         0.553404         0.384646
 H         4.614443        -0.953534        -1.782022
 H         4.143626        -2.050561        -0.357186
 H         2.059902        -0.863761        -2.088853
 H         3.517501         1.898714        -1.379688
