19
Iteration:  2386
 C         0.042971        -0.484358        -0.280381
 C         1.599047         0.002305        -0.155068
 C         2.275532        -0.866137         1.099002
 O         3.514780        -0.222660         1.386189
 C         4.138078         0.120805         0.140388
 C         3.812770        -0.838269        -1.054450
 C         2.589459         0.037816        -1.289153
 C         3.096188         1.197117        -0.542839
 O         1.878006         1.404521         0.197037
 H        -0.360316        -1.020170         0.600398
 H        -0.446264         0.488629        -0.439605
 H        -0.068466        -0.959361        -1.320761
 H         1.571490        -0.950674         1.895800
 H         2.431207        -1.773280         0.486467
 H         5.143149         0.359085         0.324070
 H         4.512533        -0.876222        -2.060512
 H         3.621540        -1.939246        -0.864741
 H         2.117456         0.312666        -2.225969
 H         3.509750         2.116624        -1.055786
