19
Iteration:  4875
 C         0.138137        -0.238647        -0.160207
 C         1.597570         0.027471        -0.025340
 C         2.134256         0.041247         1.358788
 O         3.420517         0.592910         1.327983
 C         4.074492         0.169644         0.112089
 C         3.880470        -1.323780        -0.312185
 C         2.559897        -0.895446        -0.954288
 C         3.089927         0.555863        -1.181303
 O         2.016943         1.294102        -0.677660
 H        -0.559681         0.541559         0.291839
 H        -0.144087        -0.584113        -1.202021
 H        -0.087505        -1.125190         0.460905
 H         1.492214         0.738644         1.865119
 H         2.253094        -0.874969         1.871136
 H         5.135095         0.373268         0.293650
 H         4.724625        -1.705970        -0.979476
 H         3.816423        -2.125177         0.502925
 H         1.991624        -1.438862        -1.819125
 H         3.646029         0.690975        -2.100727
