19
Iteration:  1430
 C         0.085015        -0.367874        -0.188755
 C         1.556145        -0.075651        -0.162966
 C         2.155719        -0.908626         1.041369
 O         3.527843        -0.457011         1.281588
 C         4.094620         0.215305         0.205725
 C         3.988497        -0.657716        -1.055191
 C         2.623761        -0.000826        -1.342069
 C         3.069868         1.224359        -0.535207
 O         1.837020         1.360889         0.209182
 H        -0.241765        -0.633899        -1.144910
 H        -0.330092        -1.092347         0.468649
 H        -0.529512         0.553133        -0.077944
 H         1.639837        -0.715405         1.971624
 H         2.158909        -2.034240         0.805548
 H         5.095774         0.633197         0.260707
 H         4.679321        -0.282775        -1.839384
 H         4.033107        -1.731378        -0.935493
 H         2.159030         0.143300        -2.455257
 H         3.577381         2.236481        -0.787646
