19
Iteration:   321charge 0 multiplicity 1
 C         0.070458        -0.331909        -0.242534
 C         1.628040        -0.152081        -0.078533
 C         2.260086        -1.173165         0.798686
 O         3.525279        -0.809508         1.091815
 C         4.022155         0.273220         0.217542
 C         4.071455        -0.275403        -1.306988
 C         2.590379         0.391372        -1.327245
 C         3.031922         1.328508        -0.287843
 O         1.767597         1.166293         0.553087
 H        -0.358995        -1.013243         0.546217
 H        -0.312631         0.594393        -0.098398
 H        -0.140648        -0.558489        -1.382488
 H         1.615236        -1.204539         1.705928
 H         2.084234        -2.100532         0.339672
 H         4.977319         0.695982         0.770614
 H         4.742117         0.139645        -1.951399
 H         4.128146        -1.383635        -1.250499
 H         2.021086         0.695393        -2.295868
 H         3.426827         2.369451        -0.302554
