19
Iteration:  1080
 C         0.070896        -0.551937        -0.235890
 C         1.542431        -0.102801        -0.112726
 C         2.169790        -0.892050         1.010508
 O         3.515805        -0.662214         1.205220
 C         4.148921         0.186748         0.137333
 C         3.980090        -0.470089        -1.289746
 C         2.589761         0.160864        -1.253763
 C         3.103586         1.271872        -0.364268
 O         1.820653         1.432909         0.333113
 H        -0.501404         0.285407        -0.550301
 H         0.025414        -1.246781        -1.144375
 H        -0.440220        -1.025701         0.617178
 H         1.631621        -0.527207         2.006676
 H         1.982069        -1.933276         0.953116
 H         5.191062         0.323688         0.505174
 H         4.652551         0.001979        -1.921968
 H         4.056686        -1.473112        -1.264391
 H         2.072033         0.435213        -2.293218
 H         3.643555         2.280883        -0.545479
