19
Iteration:  3616
 C         0.126967        -0.320886        -0.400883
 C         1.608589        -0.127385        -0.002721
 C         2.218461        -0.614728         1.283331
 O         3.583852        -0.096322         1.338941
 C         4.127231         0.233471         0.044913
 C         3.776271        -0.964915        -0.880618
 C         2.529740        -0.278741        -1.179394
 C         3.045155         1.061814        -0.785105
 O         1.908658         1.385442         0.059243
 H        -0.025269        -1.065741        -1.203605
 H        -0.572256        -0.533088         0.494889
 H        -0.263400         0.570851        -0.900999
 H         1.713791        -0.138499         2.125343
 H         2.384227        -1.709576         1.146442
 H         5.073303         0.733646         0.205520
 H         4.488209        -1.073898        -1.630386
 H         3.820727        -1.890038        -0.366605
 H         1.968761        -0.531577        -2.084225
 H         3.310381         1.846043        -1.440461
