19
Iteration:  3341charge 0 multiplicity 1
 C         0.149183        -0.398827        -0.205514
 C         1.574590        -0.056660        -0.120290
 C         2.138502        -0.758536         1.222199
 O         3.530385        -0.185475         1.362259
 C         4.067437         0.142267         0.143502
 C         3.843589        -0.889948        -1.128957
 C         2.568942        -0.107614        -1.358697
 C         3.168493         1.159283        -0.621202
 O         1.863541         1.399582         0.100431
 H        -0.330635        -0.749202        -1.157702
 H        -0.031976        -1.286712         0.407340
 H        -0.429187         0.452327         0.248401
 H         1.520416        -0.455469         2.085953
 H         2.269931        -1.865320         1.160111
 H         5.029222         0.728071         0.271355
 H         4.721293        -0.589947        -1.753311
 H         3.779052        -1.992038        -0.791644
 H         2.270551        -0.046449        -2.387685
 H         3.731375         1.996066        -0.991482
