19
Iteration:  4216
 C         0.113116        -0.334644        -0.234424
 C         1.549185         0.003287        -0.039501
 C         2.203634        -0.380378         1.318413
 O         3.557635         0.000366         1.377092
 C         4.079060         0.189581         0.131119
 C         3.851357        -1.095889        -0.712584
 C         2.579214        -0.498726        -1.205783
 C         3.107765         0.952795        -0.864526
 O         1.868101         1.429185        -0.259676
 H        -0.279506        -0.017702        -1.161986
 H         0.082386        -1.409591        -0.153670
 H        -0.496893         0.122738         0.551612
 H         1.674914         0.301465         2.059006
 H         2.073493        -1.440296         1.539597
 H         5.097630         0.538304         0.066040
 H         4.473375        -1.035036        -1.692742
 H         4.019984        -2.194408        -0.355813
 H         2.112973        -0.760137        -2.215524
 H         3.593338         1.692133        -1.565854
