19
Iteration:  4143charge 0 multiplicity 1
 C         0.109571        -0.266773        -0.151072
 C         1.561145        -0.020891        -0.058017
 C         2.238221        -0.547586         1.314751
 O         3.542699        -0.044527         1.386650
 C         4.064520         0.242634         0.129176
 C         3.867496        -1.022695        -0.754376
 C         2.576452        -0.381000        -1.237645
 C         3.081076         0.948998        -0.879565
 O         1.882817         1.406069        -0.272809
 H        -0.044631        -1.394835        -0.242356
 H        -0.397192         0.069339         0.773426
 H        -0.376011         0.233061        -1.109529
 H         1.581820        -0.168684         2.108028
 H         2.144311        -1.688272         1.285948
 H         5.023264         0.684404         0.246240
 H         4.732082        -1.203525        -1.416737
 H         3.815197        -1.992712        -0.270885
 H         2.137155        -0.528721        -2.234623
 H         3.558666         1.476775        -1.661048
