19
Iteration:  2266charge 0 multiplicity 1
 C         0.095020        -0.417427        -0.316562
 C         1.554236        -0.033111        -0.134162
 C         2.246984        -0.847965         0.960382
 O         3.506103        -0.195618         1.326693
 C         4.090314         0.155811         0.144267
 C         3.872984        -0.898862        -1.021512
 C         2.565228         0.004412        -1.292682
 C         3.128813         1.202092        -0.490101
 O         1.867380         1.394755         0.280829
 H        -0.335718        -0.630848         0.692349
 H        -0.331222         0.398233        -0.908718
 H         0.056276        -1.530207        -0.758910
 H         1.688326        -0.669868         1.865430
 H         2.514831        -1.926984         0.771509
 H         5.041298         0.576743         0.271413
 H         4.554061        -0.962596        -1.934432
 H         3.561917        -1.928667        -0.888087
 H         2.153936         0.116378        -2.286075
 H         3.440353         2.093215        -1.062011
