19
Iteration:   276charge 0 multiplicity 1
 C         0.126541        -0.364516        -0.472808
 C         1.533114        -0.079672         0.003423
 C         2.317815        -1.237660         0.722869
 O         3.565886        -0.609698         1.212282
 C         4.106241         0.184939         0.115705
 C         3.869586        -0.360394        -1.359871
 C         2.484240         0.419891        -1.259371
 C         3.023507         1.298323        -0.118128
 O         1.868889         1.184623         0.649965
 H        -0.663291        -0.400115         0.257980
 H        -0.126257         0.354695        -1.176926
 H         0.338188        -1.291435        -1.173495
 H         1.765083        -1.581187         1.563724
 H         2.523764        -2.094493         0.121363
 H         5.141187         0.458830         0.547011
 H         4.588799        -0.077797        -2.046608
 H         3.687083        -1.442606        -1.372177
 H         1.862501         0.920345        -2.037221
 H         3.356738         2.304371        -0.369074
