19
Iteration:  4684
 C         0.068651        -0.269921        -0.144241
 C         1.574597        -0.030092        -0.021375
 C         2.130217        -0.034983         1.421988
 O         3.450189         0.430701         1.322126
 C         4.124713         0.143069         0.111657
 C         3.877958        -1.249548        -0.381031
 C         2.590384        -0.824187        -1.111619
 C         3.102966         0.731482        -1.086240
 O         1.988302         1.310902        -0.600881
 H        -0.521626        -0.023886         0.679465
 H        -0.425822         0.242352        -0.943509
 H        -0.049691        -1.341645        -0.273579
 H         1.573922         0.682607         2.007219
 H         1.977444        -0.992244         1.827314
 H         5.142516         0.437649         0.050521
 H         4.633071        -1.555733        -1.136535
 H         3.989343        -2.192163         0.316083
 H         2.285725        -1.284141        -1.992458
 H         3.709318         1.282760        -1.899144
