19
Iteration:   861
 C         0.111420        -0.315382        -0.278636
 C         1.599247        -0.083147        -0.100727
 C         2.236438        -0.995785         0.904566
 O         3.565543        -0.543646         1.271808
 C         4.109739         0.191656         0.160197
 C         3.942192        -0.546507        -1.162647
 C         2.605936         0.118454        -1.347599
 C         2.967754         1.255723        -0.363578
 O         1.785347         1.312162         0.371990
 H        -0.218309         0.435951        -0.935186
 H        -0.103941        -1.270253        -0.849857
 H        -0.440995        -0.168496         0.639007
 H         1.706899        -1.201513         1.773780
 H         2.270578        -2.088066         0.446523
 H         5.036366         0.706382         0.498072
 H         4.851077        -0.281945        -1.916114
 H         3.938206        -1.619427        -0.932675
 H         2.047472         0.149531        -2.264449
 H         3.387154         2.226500        -0.819026
