19
Iteration:    45
 C         0.194561        -0.268556        -0.309432
 C         1.610940        -0.166628        -0.125781
 C         2.337321        -1.239503         0.687135
 O         3.576478        -0.688208         1.121407
 C         4.058239         0.252581         0.171719
 C         3.884713        -0.267767        -1.248028
 C         2.492480         0.360236        -1.294374
 C         2.991182         1.328562        -0.191870
 O         1.783341         1.121660         0.634955
 H        -0.202373        -0.007510         0.663156
 H        -0.125359         0.446103        -1.137186
 H        -0.219545        -1.277663        -0.627093
 H         1.735422        -1.557552         1.553126
 H         2.447109        -2.185701         0.035091
 H         4.969814         0.616368         0.631971
 H         4.562394         0.187660        -1.934359
 H         3.920625        -1.337763        -1.353793
 H         1.909015         0.538652        -2.178345
 H         3.374886         2.329096        -0.343017
