19
Iteration:  2531charge 0 multiplicity 1
 C         0.134624        -0.372697        -0.278457
 C         1.580657        -0.032850        -0.052148
 C         2.236318        -0.908083         1.032357
 O         3.558901        -0.358557         1.320184
 C         4.117583         0.148600         0.125821
 C         3.822434        -0.765780        -1.073606
 C         2.563908         0.036256        -1.297415
 C         3.136503         1.214603        -0.502896
 O         1.790491         1.430099         0.231874
 H        -0.508874         0.217614        -0.987029
 H        -0.001464        -1.414933        -0.716605
 H        -0.502159        -0.488530         0.534576
 H         1.628109        -1.096584         1.901692
 H         2.410305        -1.785148         0.355319
 H         5.075730         0.587453         0.255360
 H         4.669167        -0.614622        -1.793411
 H         3.822947        -1.913821        -1.112219
 H         2.080593         0.101436        -2.224174
 H         3.593950         2.119727        -0.810233
