19
Iteration:   829
 C         0.070138        -0.429979        -0.230985
 C         1.566520        -0.101364        -0.115625
 C         2.102173        -0.960827         0.990504
 O         3.494422        -0.625261         1.195516
 C         4.136342         0.135099         0.177782
 C         4.023444        -0.420170        -1.194522
 C         2.632973         0.182816        -1.328521
 C         3.063577         1.281389        -0.350762
 O         1.829698         1.347261         0.314531
 H        -0.291306        -0.236333        -1.216964
 H        -0.126646        -1.592752        -0.033983
 H        -0.611011        -0.021555         0.564571
 H         1.734962        -0.686733         1.909137
 H         2.138339        -2.072649         0.848539
 H         5.152735         0.552325         0.407285
 H         4.834109        -0.082288        -2.025565
 H         4.154909        -1.534208        -1.314044
 H         2.155435         0.342821        -2.153018
 H         3.490520         2.220191        -0.846872
