19
Iteration:  3552
 C         0.084823        -0.355983        -0.099645
 C         1.567678         0.034398        -0.024073
 C         2.132178        -0.701789         1.207028
 O         3.532927        -0.233865         1.368491
 C         4.070823         0.185827         0.098917
 C         3.959911        -0.923771        -0.892366
 C         2.618539        -0.227075        -1.289735
 C         3.104649         1.158734        -0.749532
 O         1.853184         1.456337        -0.170358
 H        -0.112700        -1.410033         0.258114
 H        -0.459151         0.262686         0.725748
 H        -0.117133        -0.329303        -1.180571
 H         1.512349        -0.446252         2.103128
 H         2.122186        -1.767912         0.937889
 H         5.047689         0.537134         0.313295
 H         4.683042        -1.004960        -1.730998
 H         3.949026        -1.944688        -0.332785
 H         2.113957        -0.631516        -2.196342
 H         3.582801         1.835621        -1.414565
