19
Iteration:  3401
 C         0.072961        -0.291372        -0.292349
 C         1.524634        -0.136453        -0.073865
 C         2.166919        -0.694281         1.240268
 O         3.557611        -0.187903         1.361798
 C         4.106918         0.204698         0.093114
 C         3.921054        -0.843252        -1.002971
 C         2.520309        -0.221613        -1.274990
 C         3.067133         1.072021        -0.718121
 O         1.949995         1.378718         0.106947
 H        -0.131393         0.740670        -0.420233
 H         0.082999        -0.991064        -1.127012
 H        -0.549795        -0.750927         0.462507
 H         1.603338        -0.445740         2.186250
 H         2.095286        -1.810062         1.070053
 H         5.007506         0.690885         0.405595
 H         4.656535        -0.751013        -1.816097
 H         4.191414        -1.904005        -0.661799
 H         2.031165        -0.259952        -2.298384
 H         3.297225         2.044834        -1.282864
