19
Iteration:   567
 C         0.046819        -0.366523        -0.341282
 C         1.560603        -0.093268        -0.105053
 C         2.220367        -1.049555         0.941662
 O         3.568003        -0.715169         1.212012
 C         4.138495         0.198267         0.158019
 C         4.060328        -0.385200        -1.310292
 C         2.567764         0.257927        -1.308545
 C         2.989633         1.297178        -0.276980
 O         1.806778         1.265281         0.484048
 H        -0.556767         0.346369         0.117396
 H        -0.102662        -0.337587        -1.464203
 H        -0.282734        -1.289532         0.029026
 H         1.496226        -0.781270         1.877556
 H         2.094957        -2.136606         0.620561
 H         5.110801         0.515006         0.546109
 H         4.823433        -0.055532        -2.028682
 H         4.076262        -1.439727        -1.431206
 H         1.891721         0.415093        -2.342684
 H         3.409591         2.333133        -0.469350
