19
Iteration:  3711charge 0 multiplicity 1
 C         0.042183        -0.325935        -0.236999
 C         1.567093        -0.075366        -0.050810
 C         2.263589        -0.782440         1.163818
 O         3.491099        -0.113218         1.378281
 C         4.185774         0.195522         0.086284
 C         3.876297        -0.911509        -0.871924
 C         2.506266        -0.234069        -1.238934
 C         3.099639         1.137728        -0.729789
 O         1.892330         1.438537        -0.074347
 H        -0.201846        -1.175316         0.401460
 H        -0.418720         0.582273         0.178340
 H        -0.385466        -0.618129        -1.165207
 H         1.806758        -0.502522         2.125042
 H         2.384817        -1.767589         0.972149
 H         5.234225         0.434480         0.524714
 H         4.523363        -1.093440        -1.860299
 H         3.834332        -1.955049        -0.478973
 H         1.853894        -0.408241        -2.101591
 H         3.706587         1.954725        -1.255585
