19
Iteration:   726
 C         0.083757        -0.342746        -0.263561
 C         1.586936        -0.081605        -0.102360
 C         2.175996        -1.075036         0.967129
 O         3.539846        -0.629238         1.241528
 C         4.102890         0.213156         0.206090
 C         3.958531        -0.475202        -1.255728
 C         2.650947         0.182127        -1.332209
 C         3.020355         1.299606        -0.378439
 O         1.812695         1.312353         0.337967
 H        -0.151374        -1.074673        -1.125874
 H        -0.223497        -0.838412         0.646063
 H        -0.516188         0.552892        -0.469294
 H         1.533085        -1.027777         1.924386
 H         2.233195        -2.194618         0.742732
 H         5.030447         0.669471         0.468102
 H         4.773433         0.064806        -1.807900
 H         4.116935        -1.582768        -1.114845
 H         2.097462         0.297567        -2.290325
 H         3.475136         2.242335        -0.661941
