19
Iteration:  1342
 C         0.073460        -0.433690        -0.283299
 C         1.551372        -0.111435        -0.083270
 C         2.186341        -0.815947         1.072145
 O         3.535498        -0.510106         1.290363
 C         4.066495         0.150249         0.136681
 C         4.002242        -0.619738        -1.158957
 C         2.625059         0.080178        -1.310094
 C         3.099419         1.242922        -0.436179
 O         1.804072         1.363284         0.208953
 H        -0.012559        -1.449572        -0.359021
 H        -0.488340        -0.076723         0.602502
 H        -0.233014         0.190290        -1.119279
 H         1.752426        -0.650883         2.018920
 H         2.166741        -1.927867         0.870943
 H         5.067298         0.453258         0.452729
 H         4.620573        -0.313203        -1.999049
 H         3.908911        -1.704330        -1.089207
 H         1.970171         0.327235        -2.202262
 H         3.524694         2.275148        -0.737679
