19
Iteration:  1336
 C         0.099089        -0.411011        -0.253245
 C         1.525868        -0.130919        -0.059692
 C         2.203030        -0.861348         1.058099
 O         3.530295        -0.504594         1.290442
 C         4.105132         0.140044         0.194840
 C         4.025667        -0.622661        -1.224186
 C         2.615802         0.095313        -1.316612
 C         3.078435         1.265643        -0.448321
 O         1.795021         1.387161         0.204443
 H        -0.189973        -1.579444        -0.175898
 H        -0.358963         0.084608         0.609927
 H        -0.335061         0.016893        -1.215080
 H         1.436353        -0.545135         1.912737
 H         2.004391        -1.933013         0.884153
 H         5.079315         0.388744         0.643184
 H         4.740038        -0.214695        -1.984998
 H         3.973801        -1.717720        -1.173867
 H         2.075343         0.190819        -2.297016
 H         3.498369         2.174088        -0.859311
