19
Iteration:  3964
 C         0.098864        -0.368372        -0.334195
 C         1.564230        -0.015130        -0.019086
 C         2.222957        -0.561473         1.234349
 O         3.567332        -0.106336         1.321171
 C         4.168398         0.211368         0.071645
 C         3.866820        -1.047308        -0.873844
 C         2.503483        -0.314289        -1.167936
 C         3.101853         1.035391        -0.709073
 O         1.853069         1.463698        -0.051278
 H        -0.231762        -0.238562        -1.415724
 H        -0.173537        -1.366809         0.193277
 H        -0.476911         0.392461         0.280978
 H         1.771256        -0.417242         2.235582
 H         2.225665        -1.653581         1.002237
 H         5.197929         0.600082         0.292363
 H         4.413860        -0.930159        -1.783921
 H         3.778073        -1.980413        -0.387250
 H         1.961607        -0.543175        -2.106771
 H         3.454546         1.839555        -1.386217
