19
Iteration:   459charge 0 multiplicity 1
 C         0.138983        -0.313737        -0.293585
 C         1.590935        -0.105199        -0.120012
 C         2.217213        -1.087018         0.855830
 O         3.611868        -0.824775         1.066053
 C         4.048376         0.258769         0.223089
 C         4.074531        -0.346089        -1.233855
 C         2.534609         0.261278        -1.388649
 C         2.963544         1.309331        -0.243166
 O         1.757552         1.271620         0.518080
 H        -0.199596        -0.628438        -1.274039
 H        -0.355447        -1.040257         0.507300
 H        -0.403076         0.611456         0.122494
 H         1.717146        -1.073835         1.871263
 H         2.008595        -2.118860         0.471999
 H         4.901292         0.542974         0.837555
 H         4.695885         0.276428        -1.946673
 H         4.432512        -1.426329        -1.186816
 H         2.022680         0.359315        -2.324321
 H         3.414401         2.293921        -0.349510
