19
Iteration:  2036
 C         0.165564        -0.355392        -0.240052
 C         1.582304        -0.030579        -0.107832
 C         2.215000        -0.921326         1.052689
 O         3.480861        -0.287846         1.328468
 C         4.105811         0.209400         0.141078
 C         3.903116        -0.808931        -1.026597
 C         2.540582        -0.027304        -1.341477
 C         3.081282         1.257191        -0.536153
 O         1.864058         1.341430         0.176717
 H        -0.331271        -0.103920         0.682412
 H        -0.283662         0.114563        -1.135504
 H         0.049651        -1.478415        -0.479955
 H         1.456760        -0.713957         2.025115
 H         2.280664        -1.922790         0.615663
 H         5.060905         0.571166         0.363359
 H         4.789365        -0.798577        -1.694458
 H         3.669502        -1.870820        -0.799436
 H         2.125957        -0.016390        -2.320220
 H         3.501960         2.180943        -0.966669
