19
Iteration:  3514
 C         0.059315        -0.297029        -0.305706
 C         1.548165        -0.109248        -0.057970
 C         2.140631        -0.589330         1.225978
 O         3.617192        -0.068263         1.402242
 C         4.098022         0.157853         0.070285
 C         3.887349        -0.880519        -0.975275
 C         2.543819        -0.302194        -1.250633
 C         3.118235         1.083258        -0.712689
 O         1.911577         1.276401         0.054035
 H        -0.445681        -1.023933         0.307926
 H        -0.463683         0.597829        -0.424618
 H        -0.170868        -0.595717        -1.333968
 H         1.686838        -0.269169         2.144067
 H         2.071009        -1.650965         1.488898
 H         5.221481         0.410510         0.074448
 H         4.554891        -0.723192        -1.837291
 H         3.889730        -1.837617        -0.620109
 H         2.003832        -0.395216        -2.186017
 H         3.414829         2.097344        -1.170314
