19
Iteration:  1042charge 0 multiplicity 1
 C         0.129369        -0.314037        -0.368203
 C         1.575959        -0.192282        -0.051725
 C         2.252859        -1.078524         0.932400
 O         3.599952        -0.511178         1.246291
 C         4.099079         0.237752         0.141652
 C         3.898810        -0.517676        -1.167206
 C         2.527605         0.121048        -1.357328
 C         2.985853         1.334587        -0.339465
 O         1.843007         1.304480         0.431914
 H         0.028064         0.429293        -1.245554
 H        -0.193610        -1.336468        -0.611783
 H        -0.449246         0.034673         0.517569
 H         1.656140        -0.996428         1.894628
 H         2.357469        -2.173427         0.577152
 H         5.081481         0.591487         0.419561
 H         4.531041        -0.337378        -2.090764
 H         3.911754        -1.695181        -1.128448
 H         2.030425         0.128748        -2.218783
 H         3.289191         2.256799        -0.764058
