19
Iteration:  3206
 C         0.108814        -0.405101        -0.130102
 C         1.574707        -0.003341        -0.076355
 C         2.235855        -0.763533         1.080774
 O         3.597902        -0.463473         1.338060
 C         4.114473         0.180189         0.221934
 C         3.849245        -0.811194        -1.067775
 C         2.550618        -0.040757        -1.370343
 C         3.079709         1.147530        -0.564010
 O         1.774468         1.508043         0.020704
 H        -0.219345        -1.022486         0.719467
 H        -0.294992         0.642733        -0.259721
 H        -0.111774        -0.906204        -1.130781
 H         1.837833        -0.773996         2.100045
 H         2.014197        -1.793539         0.859772
 H         5.117250         0.666394         0.419877
 H         4.758960        -0.491329        -1.630469
 H         3.905129        -1.822159        -0.757432
 H         2.169644        -0.160423        -2.457169
 H         3.663313         1.995448        -1.065917
