19
Iteration:  3591
 C         0.071191        -0.334959        -0.184442
 C         1.599021        -0.116338        -0.058116
 C         2.181039        -0.633764         1.251320
 O         3.474327         0.009880         1.422559
 C         4.114326         0.140023         0.047546
 C         3.864819        -1.018738        -0.952449
 C         2.601618        -0.254860        -1.379052
 C         3.119976         1.078484        -0.754380
 O         1.899880         1.377753         0.028340
 H        -0.082415        -1.271606        -0.742646
 H        -0.516948        -0.335390         0.729161
 H        -0.378183         0.395635        -0.851681
 H         1.540565        -0.171735         2.046543
 H         2.355622        -1.774458         1.189394
 H         5.167992         0.590414         0.178956
 H         4.746507        -0.933537        -1.697158
 H         3.939236        -2.030806        -0.557609
 H         2.075828        -0.361521        -2.351846
 H         3.503262         2.071987        -1.133950
