19
Iteration:  4588charge 0 multiplicity 1
 C         0.094900        -0.280238        -0.117318
 C         1.508612         0.010487        -0.040542
 C         2.164571        -0.068853         1.332258
 O         3.510032         0.277381         1.358349
 C         4.101835         0.231096         0.139196
 C         3.859756        -1.242631        -0.439951
 C         2.627087        -0.726152        -1.144638
 C         3.187815         0.715022        -1.035474
 O         1.878005         1.290892        -0.541777
 H         0.073361        -0.491410        -1.259835
 H        -0.463895        -1.119440         0.403235
 H        -0.445908         0.758491         0.027388
 H         1.629603         0.526831         2.038389
 H         2.152026        -1.172103         1.747427
 H         5.050128         0.728431         0.151080
 H         4.585632        -1.336794        -1.200056
 H         4.019216        -2.166327         0.131163
 H         1.923687        -1.089058        -1.944972
 H         3.696437         1.307845        -1.832312
