19
Iteration:  1092
 C         0.026772        -0.549895        -0.332105
 C         1.644449        -0.052240        -0.069184
 C         2.185218        -0.898796         1.052751
 O         3.601379        -0.665839         1.200804
 C         4.090212         0.119118         0.166215
 C         3.942068        -0.556001        -1.221461
 C         2.574222         0.228566        -1.292675
 C         3.086630         1.353054        -0.342691
 O         1.812205         1.408961         0.314253
 H        -0.613689         0.311399        -0.315572
 H        -0.057409        -1.207055        -1.212609
 H        -0.118656        -1.168635         0.564285
 H         1.545968        -0.508961         1.949876
 H         1.979410        -1.912721         0.827897
 H         5.054709         0.516222         0.508402
 H         4.467962        -0.117544        -2.032007
 H         4.097321        -1.556407        -1.329474
 H         1.908471         0.350635        -2.338010
 H         3.491159         2.360872        -0.717920
