19
Iteration:  2569charge 0 multiplicity 1
 C         0.021036        -0.345633        -0.419221
 C         1.551185        -0.182053        -0.057815
 C         2.103713        -0.769757         1.182205
 O         3.653312        -0.492058         1.234170
 C         4.038107         0.195321         0.113709
 C         3.968223        -0.626693        -1.175861
 C         2.593952        -0.020802        -1.337011
 C         3.034813         1.196048        -0.513634
 O         1.900562         1.322917         0.369359
 H        -0.146113        -0.035098        -1.424837
 H        -0.233153        -1.349573        -0.110752
 H        -0.402417         0.567594         0.272308
 H         1.749264        -0.313441         2.196079
 H         2.099110        -1.814429         1.304393
 H         5.109853         0.661693         0.462110
 H         4.549730        -0.154396        -1.944252
 H         4.122118        -1.623444        -0.899955
 H         1.985072        -0.035893        -2.371900
 H         3.537408         2.124073        -0.975077
