19
Iteration:  4342charge 0 multiplicity 1
 C         0.122700        -0.357071        -0.212034
 C         1.564483        -0.013951        -0.005307
 C         2.169461        -0.270693         1.426279
 O         3.498419         0.101022         1.362289
 C         4.085376         0.130689         0.086890
 C         3.924071        -1.138175        -0.676969
 C         2.553698        -0.482047        -1.193899
 C         3.102093         0.900398        -0.953458
 O         1.921977         1.360893        -0.357916
 H        -0.250432        -1.356897         0.240415
 H        -0.522567         0.507917         0.276255
 H        -0.067170        -0.363073        -1.312694
 H         1.541614         0.374601         2.008343
 H         1.964881        -1.313264         1.775825
 H         5.169399         0.438317         0.079543
 H         4.705045        -1.176407        -1.438853
 H         3.929538        -1.961492        -0.003788
 H         2.067203        -0.788679        -2.098604
 H         3.439566         1.719612        -1.600251
