19
Iteration:  3283
 C         0.120046        -0.269236        -0.297192
 C         1.590317        -0.101699         0.046608
 C         2.263040        -0.806347         1.144166
 O         3.589279        -0.324063         1.327936
 C         4.120954         0.180099         0.087800
 C         3.914511        -0.824206        -1.031508
 C         2.516482        -0.158562        -1.233612
 C         2.997848         1.183060        -0.657137
 O         1.788828         1.427335         0.092036
 H         0.003548        -1.137817        -0.972420
 H        -0.534628        -0.168132         0.613717
 H        -0.081837         0.670188        -0.986923
 H         1.745831        -0.670507         2.143895
 H         2.312702        -1.903592         1.028205
 H         5.086470         0.743062         0.353294
 H         4.781258        -0.861013        -1.785516
 H         3.910111        -1.861898        -0.700074
 H         1.941292        -0.273240        -2.238784
 H         3.467925         2.065361        -1.212260
