19
Iteration:   574charge 0 multiplicity 1
 C         0.056715        -0.349442        -0.332761
 C         1.585417        -0.127872        -0.080453
 C         2.178006        -1.061047         0.964479
 O         3.563465        -0.727194         1.207913
 C         4.106962         0.181367         0.186410
 C         4.052453        -0.339880        -1.314687
 C         2.580839         0.270625        -1.332007
 C         2.985202         1.314045        -0.260621
 O         1.825793         1.263437         0.428208
 H        -0.509335         0.363047         0.345353
 H        -0.223994        -0.280765        -1.415328
 H        -0.180412        -1.399910        -0.081461
 H         1.660805        -0.867049         1.886136
 H         2.052244        -2.156119         0.695097
 H         5.049933         0.557646         0.544085
 H         4.724933         0.033651        -2.138568
 H         4.097404        -1.434376        -1.337352
 H         2.069311         0.405575        -2.249957
 H         3.447909         2.222568        -0.709903
