19
Iteration:   252charge 0 multiplicity 1
 C         0.239986        -0.449585        -0.488788
 C         1.642666        -0.047996        -0.097232
 C         2.286602        -1.117622         0.770757
 O         3.580680        -0.737449         1.132314
 C         4.026245         0.163271         0.125487
 C         3.790556        -0.355846        -1.295322
 C         2.490794         0.409480        -1.280129
 C         3.017368         1.424942        -0.134346
 O         1.836417         1.166259         0.732201
 H        -0.315506        -0.031941         0.304128
 H        -0.013238         0.175019        -1.447124
 H         0.120192        -1.537375        -0.759065
 H         1.659556        -1.100631         1.596448
 H         2.260394        -2.131387         0.415069
 H         5.043817         0.338181         0.463970
 H         4.516008         0.246539        -1.931195
 H         3.791433        -1.406181        -1.553860
 H         1.888910         0.539060        -2.108290
 H         3.407519         2.403788        -0.327436
