19
Iteration:  2607
 C         0.151098        -0.344698        -0.274925
 C         1.554115        -0.068220        -0.068440
 C         2.212632        -0.940043         1.072869
 O         3.592718        -0.473745         1.284664
 C         4.078902         0.170860         0.181164
 C         3.945047        -0.636940        -1.134434
 C         2.551682         0.000331        -1.270777
 C         3.030592         1.252031        -0.497144
 O         1.826574         1.417820         0.196317
 H        -0.157062        -0.552077        -1.360132
 H        -0.452714        -1.106170         0.330789
 H        -0.303429         0.567563         0.057315
 H         1.588963        -0.906248         1.998417
 H         2.042661        -2.083573         0.736524
 H         5.071637         0.482372         0.320285
 H         4.649872        -0.357169        -2.005932
 H         4.011165        -1.794634        -1.045093
 H         2.077652         0.002636        -2.208957
 H         3.439807         2.133481        -0.943006
