19
Iteration:   609charge 0 multiplicity 1
 C         0.094653        -0.348821        -0.303035
 C         1.563329        -0.094084        -0.115232
 C         2.205186        -1.020660         0.824267
 O         3.591714        -0.647809         1.215907
 C         4.114155         0.181697         0.183297
 C         4.000511        -0.462268        -1.228385
 C         2.604832         0.178586        -1.315575
 C         3.007928         1.287197        -0.313146
 O         1.766738         1.312202         0.477384
 H        -0.439530        -0.558499         0.602336
 H        -0.454271         0.538205        -0.805496
 H         0.013856        -1.192858        -0.861363
 H         1.726842        -1.072236         1.808941
 H         2.189927        -2.092264         0.383169
 H         5.021075         0.529359         0.632343
 H         4.619614        -0.050856        -2.069743
 H         4.140646        -1.453298        -1.048347
 H         2.080999         0.377015        -2.305733
 H         3.242396         2.365371        -0.535696
