19
Iteration:  3231charge 0 multiplicity 1
 C         0.112143        -0.446020        -0.227448
 C         1.573912        -0.033775        -0.078624
 C         2.157957        -0.757950         1.133947
 O         3.477069        -0.266720         1.356413
 C         4.154877         0.165894         0.056276
 C         3.808150        -0.872917        -1.095188
 C         2.607697        -0.014287        -1.334315
 C         3.119928         1.226810        -0.593989
 O         1.916809         1.361520         0.194235
 H        -0.044154        -1.278357         0.448507
 H        -0.382674         0.430893         0.059408
 H        -0.243687        -0.723001        -1.243548
 H         1.626589        -0.699369         2.079170
 H         2.089925        -1.872472         1.025043
 H         5.189705         0.525110         0.348771
 H         4.582974        -0.650454        -1.819133
 H         3.742007        -1.961753        -0.845034
 H         2.287233         0.063380        -2.369091
 H         3.397777         2.132587        -1.150278
