19
Iteration:  4068charge 0 multiplicity 1
 C         0.220060        -0.344660        -0.258922
 C         1.596382        -0.001161        -0.021189
 C         2.217963        -0.535638         1.291498
 O         3.549122        -0.024656         1.344709
 C         4.102592         0.136162         0.131432
 C         3.810175        -1.086541        -0.807459
 C         2.534582        -0.288137        -1.229147
 C         3.046016         1.061965        -0.898557
 O         1.861476         1.412459        -0.099285
 H        -0.333665        -0.029976         0.636472
 H        -0.150530         0.101286        -1.157550
 H         0.099262        -1.444816        -0.386597
 H         1.580175        -0.210565         2.097698
 H         2.155723        -1.622395         1.194051
 H         5.126385         0.431914         0.404016
 H         4.544768        -1.414621        -1.575689
 H         3.738038        -2.074695        -0.267614
 H         1.976932        -0.422108        -2.136761
 H         3.325359         1.883453        -1.564125
