19
Iteration:  4428charge 0 multiplicity 1
 C         0.071734        -0.338084        -0.220619
 C         1.555374        -0.057547        -0.021185
 C         2.163968        -0.254173         1.283736
 O         3.509052         0.299923         1.385537
 C         4.124244         0.125569         0.133688
 C         3.847798        -1.151869        -0.573873
 C         2.563352        -0.624742        -1.149072
 C         3.121850         0.824937        -1.007065
 O         1.917581         1.375247        -0.358847
 H        -0.088616         0.570215        -0.818549
 H        -0.257645        -1.184521        -0.710216
 H        -0.447244        -0.254965         0.676226
 H         1.685333         0.213243         2.203250
 H         2.536478        -1.219128         1.535443
 H         5.215039         0.386180         0.200303
 H         4.737794        -1.227268        -1.349259
 H         3.842936        -2.149982        -0.101180
 H         2.021845        -1.044020        -2.017749
 H         3.508706         1.525953        -1.737826
