19
Iteration:    74charge 0 multiplicity 1
 C         0.079277        -0.445910        -0.340647
 C         1.526982        -0.102504        -0.107355
 C         2.262016        -1.104282         0.849837
 O         3.652925        -0.841821         1.016599
 C         4.125107         0.160604         0.162443
 C         3.990713        -0.266040        -1.303356
 C         2.584074         0.436268        -1.259704
 C         2.995075         1.354183        -0.183847
 O         1.718865         1.214346         0.605663
 H        -0.514973        -0.382680         0.630636
 H        -0.506458         0.445280        -0.892925
 H         0.068244        -1.401341        -0.721370
 H         1.819943        -0.984430         1.822922
 H         2.201567        -2.141334         0.412623
 H         4.996845         0.538700         0.693262
 H         4.680652         0.392961        -1.939926
 H         4.035583        -1.319366        -1.561005
 H         2.054745         0.790966        -2.148089
 H         3.419593         2.382132        -0.383249
