19
Iteration:  4844charge 0 multiplicity 1
 C        -0.019800        -0.213932        -0.081852
 C         1.554099        -0.045542        -0.051779
 C         2.143257         0.030592         1.332102
 O         3.478724         0.441642         1.322687
 C         4.111743         0.230504         0.099164
 C         3.890911        -1.273008        -0.280697
 C         2.585139        -0.816011        -0.983422
 C         3.209734         0.625972        -1.087592
 O         1.970237         1.219380        -0.780901
 H        -0.556010         0.665279        -0.618775
 H        -0.285281        -1.235226        -0.614243
 H        -0.292072        -0.191143         1.027226
 H         1.500340         0.792839         1.849779
 H         2.095443        -0.820536         2.006726
 H         5.179134         0.406843         0.162097
 H         4.627430        -1.690901        -0.989684
 H         3.838571        -1.885620         0.602869
 H         2.201924        -1.368471        -1.910305
 H         3.771807         0.994613        -1.899948
