19
Iteration:  1889
 C         0.176331        -0.329922        -0.379639
 C         1.555492        -0.075581        -0.084865
 C         2.289586        -0.904987         1.044834
 O         3.475683        -0.183188         1.378884
 C         4.078920         0.148054         0.080925
 C         3.849142        -0.875055        -1.020772
 C         2.563708        -0.049302        -1.276610
 C         3.048229         1.272791        -0.628978
 O         1.899414         1.336806         0.320523
 H        -0.464114        -0.701562         0.485231
 H        -0.135333         0.582244        -0.870091
 H         0.148735        -1.139988        -1.107254
 H         1.626282        -0.874575         1.967128
 H         2.437883        -1.944941         0.735376
 H         5.106860         0.634094         0.296571
 H         4.555467        -0.903097        -1.839424
 H         3.735392        -1.865643        -0.750364
 H         1.993698        -0.082988        -2.244344
 H         3.220231         2.303602        -1.001715
