19
Iteration:  1622
 C         0.117844        -0.303554        -0.349927
 C         1.547179        -0.094427        -0.069001
 C         2.276735        -0.896634         1.069895
 O         3.547825        -0.285565         1.374611
 C         4.142454         0.239957         0.164972
 C         3.891460        -0.827306        -1.065547
 C         2.509298        -0.039716        -1.285758
 C         3.012419         1.203989        -0.588437
 O         1.848272         1.367247         0.199900
 H        -0.556237        -0.439952         0.452506
 H        -0.258839         0.575862        -0.940413
 H         0.156161        -1.141628        -1.031009
 H         1.850838        -0.991932         2.144877
 H         2.453360        -1.903007         0.750314
 H         5.125532         0.535713         0.481009
 H         4.524335        -0.677042        -1.866876
 H         3.901175        -1.865661        -0.698501
 H         2.016852        -0.149610        -2.235128
 H         3.441458         2.058625        -1.086928
