19
Iteration:  2025charge 0 multiplicity 1
 C         0.114830        -0.346264        -0.283664
 C         1.615882        -0.073984        -0.087530
 C         2.279112        -0.930281         0.981589
 O         3.480091        -0.252596         1.417191
 C         4.040540         0.178748         0.103987
 C         3.842011        -0.829022        -1.000239
 C         2.577200         0.023800        -1.393079
 C         3.079941         1.266633        -0.603539
 O         1.895648         1.345685         0.230202
 H        -0.572757         0.059776         0.436126
 H        -0.235949         0.097143        -1.239463
 H        -0.027635        -1.492900        -0.229137
 H         1.683507        -1.087990         2.096875
 H         2.498521        -1.976842         0.908551
 H         5.037018         0.398011         0.251001
 H         4.749800        -0.724044        -1.630637
 H         3.797532        -1.883922        -0.640156
 H         2.053808         0.063931        -2.313573
 H         3.372780         2.279889        -0.935838
