19
Iteration:  4358charge 0 multiplicity 1
 C         0.045223        -0.337982        -0.141443
 C         1.554625        -0.090660        -0.054678
 C         2.117913        -0.231140         1.342104
 O         3.544706         0.155303         1.450773
 C         4.122812         0.198869         0.138106
 C         3.903205        -1.164603        -0.746785
 C         2.576500        -0.550313        -1.220333
 C         3.154955         0.844412        -0.899315
 O         1.899633         1.390594        -0.378777
 H        -0.045470        -1.373923        -0.300076
 H        -0.534085         0.034724         0.656627
 H        -0.328221         0.185238        -1.036048
 H         1.611833         0.518127         2.005873
 H         2.034763        -1.318630         1.599538
 H         5.069135         0.652485         0.367535
 H         4.584904        -1.170413        -1.607944
 H         3.946153        -2.199857        -0.295234
 H         2.080458        -0.768460        -2.211308
 H         3.733444         1.386623        -1.684552
