19
Iteration:  2024charge 0 multiplicity 1
 C         0.105367        -0.349454        -0.289917
 C         1.617962        -0.083759        -0.083830
 C         2.288286        -0.925792         0.983094
 O         3.482747        -0.247930         1.419896
 C         4.036058         0.179090         0.109975
 C         3.833666        -0.833352        -0.997001
 C         2.587473         0.029015        -1.399980
 C         3.078281         1.256255        -0.610436
 O         1.897270         1.349139         0.237788
 H        -0.567855         0.104712         0.432948
 H        -0.237179         0.094063        -1.269514
 H        -0.021766        -1.474763        -0.226099
 H         1.672955        -1.095122         2.081830
 H         2.513162        -2.000058         0.886680
 H         5.031684         0.385601         0.273060
 H         4.699519        -0.716668        -1.688889
 H         3.808644        -1.824621        -0.651526
 H         2.051363         0.061685        -2.299668
 H         3.367078         2.279370        -0.931468
