19
Iteration:  2518charge 0 multiplicity 1
 C         0.026797        -0.464660        -0.270251
 C         1.526057         0.000827        -0.137203
 C         2.334673        -0.937875         0.927653
 O         3.513787        -0.320810         1.407140
 C         4.101444         0.168200         0.180017
 C         3.857973        -0.834211        -1.092721
 C         2.540628         0.056827        -1.332701
 C         3.077462         1.232401        -0.498025
 O         1.908761         1.470913         0.248144
 H        -0.409184         0.466273        -0.644544
 H         0.024647        -1.303271        -0.991737
 H        -0.199025        -0.667936         0.774124
 H         1.774994        -1.035576         1.843631
 H         2.487017        -2.046239         0.688533
 H         5.087985         0.350203         0.421402
 H         4.540195        -0.524091        -1.978258
 H         3.685713        -1.910086        -0.908303
 H         2.140991         0.199736        -2.326621
 H         3.486993         2.110783        -1.005702
