19
Iteration:  2204charge 0 multiplicity 1
 C         0.066211        -0.297425        -0.295091
 C         1.509656        -0.035443        -0.048508
 C         2.141222        -0.744912         1.123493
 O         3.624567        -0.528046         1.215888
 C         4.121837         0.229559         0.149740
 C         4.072516        -0.703495        -1.059023
 C         2.551143        -0.118289        -1.208969
 C         3.046522         1.215175        -0.530719
 O         1.788089         1.327532         0.132216
 H        -0.507344         0.484996         0.234464
 H        -0.211286        -0.263682        -1.339365
 H        -0.248448        -1.277387        -0.084846
 H         1.778242        -0.242040         2.134492
 H         2.002865        -1.845360         1.096394
 H         5.083835         0.698555         0.538615
 H         4.648403        -0.310746        -1.882952
 H         4.231424        -1.833016        -0.941524
 H         2.201177        -0.239510        -2.260718
 H         3.273310         2.176670        -0.966208
