19
Iteration:  3167charge 0 multiplicity 1
 C         0.132586        -0.287351        -0.264059
 C         1.553540        -0.098591        -0.046392
 C         2.175427        -0.746471         1.117537
 O         3.513686        -0.317406         1.231350
 C         4.129592         0.215425         0.089185
 C         3.929637        -0.739263        -1.055093
 C         2.548035        -0.188418        -1.318856
 C         3.088421         1.148886        -0.550732
 O         1.876241         1.319154         0.262863
 H        -0.447572        -0.154787         0.680451
 H        -0.137732         0.546010        -0.883478
 H        -0.268530        -1.227945        -0.676478
 H         1.519754        -0.429171         1.954214
 H         2.155687        -1.889610         1.022371
 H         5.145258         0.585532         0.420692
 H         4.491458        -0.466240        -1.957117
 H         4.150943        -1.857081        -1.096560
 H         2.107407        -0.160772        -2.285955
 H         3.322747         2.063201        -1.070379
