19
Iteration:  2163
 C         0.151048        -0.315437        -0.206680
 C         1.625825        -0.054488        -0.110600
 C         2.207731        -0.859351         1.012200
 O         3.457652        -0.277423         1.378138
 C         4.064115         0.161737         0.194668
 C         3.893338        -0.788788        -1.060592
 C         2.614887        -0.036239        -1.363554
 C         3.075272         1.222695        -0.596465
 O         1.843136         1.294683         0.195467
 H        -0.423021         0.241431         0.555440
 H        -0.287147        -0.085807        -1.209956
 H         0.091904        -1.359226        -0.015078
 H         1.532710        -0.862552         1.773094
 H         2.285413        -1.873558         0.694283
 H         5.122564         0.561450         0.284932
 H         4.623647        -0.378699        -1.861163
 H         4.088236        -1.902560        -0.961024
 H         1.943930        -0.028201        -2.248725
 H         3.582666         2.141867        -0.941526
