19
Iteration:   139charge 0 multiplicity 1
 C         0.173121        -0.344262        -0.478878
 C         1.628164        -0.137495        -0.117427
 C         2.323613        -1.163357         0.752850
 O         3.653046        -0.666727         1.169543
 C         4.104408         0.243477         0.167595
 C         3.773452        -0.411650        -1.337850
 C         2.484695         0.411200        -1.190285
 C         3.010038         1.347300        -0.126599
 O         1.803378         1.135833         0.642993
 H        -0.590211        -0.711658         0.302698
 H        -0.484536         0.615350        -0.761676
 H         0.174473        -1.030442        -1.299411
 H         1.661995        -1.218757         1.631638
 H         2.477991        -2.090037         0.247033
 H         5.086160         0.683103         0.336329
 H         4.359734         0.139767        -2.200068
 H         3.617184        -1.525238        -1.391353
 H         1.972082         0.565676        -2.154180
 H         3.420964         2.398019        -0.055238
