19
Iteration:   690
 C         0.077579        -0.408936        -0.364592
 C         1.548569        -0.082856        -0.143965
 C         2.181969        -0.996095         0.961092
 O         3.602528        -0.689190         1.186364
 C         4.177182         0.207874         0.170913
 C         3.922946        -0.458167        -1.169962
 C         2.589361         0.197689        -1.264776
 C         3.081772         1.295485        -0.314870
 O         1.788011         1.335942         0.404962
 H         0.006118        -1.486766        -0.348926
 H        -0.421899        -0.050199         0.445602
 H        -0.424347         0.067323        -1.240559
 H         1.693433        -0.694170         2.035497
 H         1.949761        -2.064869         0.589241
 H         5.146334         0.612945         0.582978
 H         4.468905        -0.073821        -1.987283
 H         4.091959        -1.564787        -1.259309
 H         2.032584         0.262452        -2.362810
 H         3.223052         2.264520        -0.723381
