19
Iteration:  4381
 C         0.090174        -0.362571        -0.145356
 C         1.563017        -0.002357        -0.060208
 C         2.132550        -0.288968         1.311969
 O         3.483224         0.174352         1.421706
 C         4.120361         0.128781         0.094725
 C         3.889283        -1.154291        -0.598791
 C         2.571585        -0.560559        -1.188595
 C         3.144256         0.929866        -0.986339
 O         1.930826         1.385511        -0.398823
 H        -0.084842        -1.076538        -0.899795
 H        -0.199133        -0.723604         0.785694
 H        -0.515706         0.521165        -0.251442
 H         1.675098         0.370073         2.100369
 H         2.118588        -1.395037         1.529471
 H         5.068253         0.498137         0.329590
 H         4.580044        -1.235002        -1.482120
 H         3.982078        -2.135202        -0.055427
 H         2.020313        -0.915826        -2.124898
 H         3.560084         1.562031        -1.773615
