19
Iteration:   369charge 0 multiplicity 1
 C         0.120286        -0.411918        -0.461679
 C         1.556978        -0.078060        -0.101803
 C         2.263913        -1.117463         0.836294
 O         3.632806        -0.691438         1.135997
 C         4.079519         0.205210         0.198323
 C         3.880610        -0.409765        -1.325133
 C         2.564381         0.400151        -1.273378
 C         2.999831         1.278347        -0.162992
 O         1.820876         1.242869         0.616314
 H        -0.131403        -1.412174        -0.076618
 H        -0.598525         0.345239         0.151225
 H        -0.036295        -0.262168        -1.466293
 H         1.769974        -1.400939         1.855785
 H         2.282839        -2.073043         0.255990
 H         5.052015         0.576106         0.342581
 H         4.627076         0.055670        -2.025014
 H         3.821848        -1.472469        -1.408766
 H         2.044891         0.773050        -2.203658
 H         3.287926         2.327670        -0.292835
