19
Iteration:  3833
 C         0.013700        -0.314948        -0.269524
 C         1.547323        -0.111970        -0.088564
 C         2.140607        -0.686296         1.221244
 O         3.560188        -0.034816         1.386801
 C         4.154976         0.222459         0.075526
 C         3.837725        -0.967985        -0.933757
 C         2.577808        -0.207198        -1.308927
 C         3.115339         1.051891        -0.717162
 O         1.928899         1.335350         0.064347
 H        -0.295302        -1.058213         0.439093
 H        -0.462676         0.638428         0.031933
 H        -0.272929        -0.678084        -1.235018
 H         1.777849        -0.293158         2.170710
 H         2.365905        -1.850034         1.205319
 H         5.231618         0.501731         0.125517
 H         4.577539        -0.923811        -1.810326
 H         3.855670        -2.035651        -0.757051
 H         2.296493        -0.268192        -2.344111
 H         3.414096         2.025835        -1.121065
