19
Iteration:  3078charge 0 multiplicity 1
 C         0.050112        -0.394729        -0.162762
 C         1.631065        -0.102525        -0.092740
 C         2.073798        -0.796930         1.169554
 O         3.488966        -0.429827         1.277648
 C         4.066662         0.196529         0.167401
 C         4.023953        -0.706213        -1.136330
 C         2.555433         0.004612        -1.333282
 C         3.150687         1.185692        -0.575996
 O         1.900155         1.367894         0.124550
 H        -0.424749         0.536511         0.035747
 H        -0.443273        -0.792226        -1.024843
 H        -0.121660        -1.214500         0.634311
 H         1.627137        -0.308532         2.033282
 H         2.028856        -1.885985         1.153818
 H         5.196292         0.424282         0.434004
 H         4.738382        -0.176645        -1.833397
 H         4.025183        -1.846985        -1.326423
 H         2.022376         0.138269        -2.269005
 H         3.469525         2.166027        -1.034816
