19
Iteration:  4869charge 0 multiplicity 1
 C         0.137889        -0.253805        -0.124467
 C         1.612815         0.041337        -0.037551
 C         2.074205         0.052761         1.324716
 O         3.404928         0.574843         1.327586
 C         4.115575         0.168270         0.126257
 C         3.896252        -1.335285        -0.315294
 C         2.575640        -0.855644        -0.959928
 C         3.119491         0.502125        -1.216767
 O         1.990555         1.305143        -0.658848
 H        -0.378795         0.684246         0.085000
 H        -0.106480        -0.667763        -1.116623
 H        -0.106383        -0.932785         0.757079
 H         1.384359         0.662970         1.999133
 H         2.102305        -0.966492         1.855978
 H         5.177320         0.451608         0.178084
 H         4.598388        -1.687758        -1.049081
 H         3.849509        -2.097671         0.430237
 H         2.107908        -1.532394        -1.621376
 H         3.625414         0.885459        -2.142870
