19
Iteration:   602
 C         0.107472        -0.345239        -0.277602
 C         1.602649        -0.089428        -0.111285
 C         2.228760        -1.011573         0.823645
 O         3.554886        -0.683529         1.186415
 C         4.104951         0.179133         0.185022
 C         4.054375        -0.436821        -1.218252
 C         2.539550         0.194248        -1.307889
 C         2.981656         1.307287        -0.261361
 O         1.775858         1.293648         0.426097
 H        -0.420770        -0.286159         0.684989
 H        -0.337732         0.408015        -0.882954
 H         0.026420        -1.361215        -0.822094
 H         1.592463        -0.894299         1.842672
 H         2.118733        -2.077459         0.533597
 H         5.091980         0.556104         0.577566
 H         4.659708         0.101004        -1.925440
 H         4.169295        -1.598862        -1.189379
 H         1.957243         0.236077        -2.346978
 H         3.380626         2.263096        -0.581978
