19
Iteration:   532charge 0 multiplicity 1
 C         0.155310        -0.374097        -0.428224
 C         1.596116        -0.100017        -0.084518
 C         2.298315        -1.134851         0.793715
 O         3.541094        -0.599390         1.254257
 C         4.128078         0.239009         0.129232
 C         3.807223        -0.507229        -1.238427
 C         2.512178         0.307710        -1.265300
 C         3.046319         1.334266        -0.292230
 O         1.864819         1.269673         0.567417
 H        -0.331051         0.514614        -0.810003
 H         0.159974        -1.080002        -1.308442
 H        -0.366145        -0.846231         0.303395
 H         1.661585        -1.366599         1.736999
 H         2.461898        -2.173277         0.320004
 H         5.113005         0.482153         0.491596
 H         4.552286        -0.313479        -2.009653
 H         3.599063        -1.507886        -1.105930
 H         1.829121         0.650056        -2.177889
 H         3.269163         2.423026        -0.272110
