19
Iteration:  2700charge 0 multiplicity 1
 C         0.105953        -0.308485        -0.378264
 C         1.586217        -0.045876         0.002999
 C         2.208207        -0.852971         1.157184
 O         3.636413        -0.552763         1.162919
 C         4.095395         0.211246         0.103502
 C         3.951194        -0.649247        -1.069928
 C         2.552339        -0.127020        -1.206230
 C         3.064967         1.247656        -0.510918
 O         1.721316         1.410689         0.221773
 H         0.029978        -0.238687        -1.412716
 H        -0.378036        -1.187692        -0.140195
 H        -0.529246         0.477628         0.116311
 H         1.866981        -0.571759         2.202406
 H         2.164340        -2.016556         1.234895
 H         5.078499         0.678713         0.500200
 H         4.560067        -0.340485        -1.889079
 H         4.117158        -1.699297        -0.964352
 H         2.174448        -0.046714        -2.283569
 H         3.382507         2.198238        -1.028086
