19
Iteration:  1564charge 0 multiplicity 1
 C         0.101633        -0.378885        -0.224408
 C         1.552907        -0.074624        -0.113909
 C         2.126494        -0.792629         1.138527
 O         3.529852        -0.451481         1.304214
 C         4.059701         0.182966         0.179714
 C         3.950978        -0.682044        -1.099936
 C         2.643510         0.005713        -1.330221
 C         3.111264         1.217657        -0.525773
 O         1.831767         1.338115         0.136221
 H        -0.466757         0.525944         0.192580
 H         0.037016        -0.683927        -1.214894
 H        -0.089428        -1.188655         0.440260
 H         1.595655        -0.557330         2.075856
 H         1.959098        -1.851743         0.835824
 H         5.095743         0.512702         0.237678
 H         4.693982        -0.310786        -1.842848
 H         4.215106        -1.718532        -1.031954
 H         2.019772        -0.190719        -2.400158
 H         3.556710         2.226785        -0.955403
