19
Iteration:  1437
 C         0.046745        -0.333054        -0.169232
 C         1.613289        -0.036917        -0.141826
 C         2.191929        -0.916417         1.057781
 O         3.505157        -0.498201         1.253923
 C         4.088750         0.237561         0.183706
 C         3.994089        -0.633798        -1.078788
 C         2.627247         0.000063        -1.331994
 C         3.070226         1.233346        -0.524073
 O         1.818389         1.347156         0.170973
 H        -0.117605        -0.780884        -1.184049
 H        -0.282650        -1.211839         0.535016
 H        -0.547713         0.522984         0.104205
 H         1.488418        -0.669061         1.842114
 H         2.055278        -1.980133         0.791492
 H         5.028521         0.669103         0.641450
 H         4.743148        -0.367925        -1.815362
 H         4.068254        -1.744245        -0.804546
 H         2.183383        -0.002260        -2.346145
 H         3.579906         2.060622        -0.841943
