19
Iteration:  2820
 C         0.077475        -0.357856        -0.356004
 C         1.608332        -0.135289        -0.058166
 C         2.168928        -0.784253         1.287716
 O         3.563207        -0.466575         1.272201
 C         4.042425         0.136898         0.138539
 C         4.002089        -0.666608        -1.202298
 C         2.606670        -0.094128        -1.306029
 C         2.973946         1.253838        -0.527424
 O         1.864920         1.396620         0.220111
 H        -0.117132         0.529451        -0.955703
 H        -0.186548        -1.251093        -0.909939
 H        -0.534750        -0.358665         0.656733
 H         1.803118        -0.218295         2.188094
 H         1.944299        -1.842884         1.474174
 H         5.102744         0.448037         0.420764
 H         4.687847        -0.125408        -1.938899
 H         4.311551        -1.766287        -1.371536
 H         2.056255         0.050659        -2.280168
 H         3.287638         2.105216        -1.202130
