19
Iteration:  1003
 C         0.046311        -0.292064        -0.371240
 C         1.603892        -0.123681        -0.107087
 C         2.277690        -1.057312         0.869582
 O         3.570642        -0.395919         1.291168
 C         4.128227         0.204423         0.148926
 C         3.896457        -0.575456        -1.211643
 C         2.515125         0.095707        -1.345440
 C         2.978210         1.242186        -0.346777
 O         1.892554         1.261395         0.516370
 H        -0.123035        -0.070467        -1.364809
 H        -0.426119        -1.306644        -0.324108
 H        -0.554688         0.398617         0.168059
 H         1.725133        -1.320407         1.776091
 H         2.473641        -1.972085         0.407378
 H         5.150633         0.585821         0.434263
 H         4.609088        -0.162159        -1.866071
 H         4.005480        -1.598441        -1.162290
 H         2.045139         0.014727        -2.486277
 H         3.297681         2.344149        -0.452909
