19
Iteration:   641
 C         0.147698        -0.360770        -0.422402
 C         1.594910        -0.145501        -0.113121
 C         2.316663        -1.084109         0.852186
 O         3.529549        -0.452314         1.276697
 C         4.097831         0.165037         0.155542
 C         3.787902        -0.536058        -1.193329
 C         2.508435         0.226670        -1.296167
 C         3.044602         1.317630        -0.327021
 O         1.878913         1.242409         0.523131
 H        -0.345384        -1.196855         0.097459
 H        -0.382133         0.713593        -0.422233
 H         0.073357        -0.585998        -1.465145
 H         1.663914        -1.147401         1.642118
 H         2.512883        -2.033079         0.361709
 H         5.119930         0.396141         0.372895
 H         4.564849        -0.406834        -2.004056
 H         3.899642        -1.562207        -1.056742
 H         1.961384         0.468378        -2.164930
 H         3.382157         2.402229        -0.340158
