19
Iteration:  2068charge 0 multiplicity 1
 C         0.002073        -0.395771        -0.298173
 C         1.543836        -0.075183        -0.058992
 C         2.149255        -0.731558         1.205169
 O         3.615824        -0.457461         1.299035
 C         4.127517         0.161282         0.162696
 C         4.049586        -0.690845        -1.051132
 C         2.560965        -0.063168        -1.350223
 C         3.067690         1.167731        -0.567657
 O         1.838848         1.402340         0.113206
 H        -0.419381        -0.491722         0.681501
 H        -0.500842         0.464099        -0.783268
 H         0.161230        -1.347751        -0.908441
 H         1.419083        -0.319166         2.113371
 H         1.754170        -1.787523         1.128877
 H         5.049417         0.490327         0.502004
 H         4.641268        -0.254423        -1.854215
 H         4.105824        -1.714120        -1.048355
 H         2.033223        -0.074445        -2.265980
 H         3.438767         2.133035        -0.991861
