19
Iteration:  1007
 C         0.034426        -0.278645        -0.377198
 C         1.597971        -0.129636        -0.077038
 C         2.309264        -1.053371         0.856767
 O         3.577367        -0.380222         1.295615
 C         4.115467         0.200332         0.151783
 C         3.903094        -0.598609        -1.205355
 C         2.490545         0.089815        -1.377795
 C         2.982609         1.266953        -0.311746
 O         1.886664         1.248815         0.516958
 H        -0.047835         0.007810        -1.478609
 H        -0.350751        -1.265005        -0.353209
 H        -0.628582         0.462566         0.132941
 H         1.729802        -1.289224         1.710376
 H         2.570639        -2.060420         0.303187
 H         5.103956         0.569445         0.369962
 H         4.644685        -0.105768        -1.998652
 H         3.963276        -1.763932        -1.076704
 H         2.135944        -0.009644        -2.325952
 H         3.217943         2.281614        -0.509144
