19
Iteration:   241charge 0 multiplicity 1
 C         0.135646        -0.440223        -0.432276
 C         1.587586        -0.112372        -0.123772
 C         2.229750        -1.106480         0.790895
 O         3.620813        -0.754056         1.066004
 C         4.155439         0.146350         0.148360
 C         3.888646        -0.301620        -1.294481
 C         2.498367         0.442914        -1.228718
 C         3.013332         1.375678        -0.093002
 O         1.804721         1.193005         0.631246
 H        -0.593674        -0.193308         0.296808
 H        -0.129180         0.044692        -1.428816
 H        -0.040225        -1.537711        -0.543294
 H         1.724497        -0.914987         1.682002
 H         2.105022        -2.133012         0.518559
 H         5.182411         0.390496         0.415787
 H         4.660310         0.060382        -2.003117
 H         3.889692        -1.381082        -1.402129
 H         2.027708         0.837639        -2.073552
 H         3.225248         2.427904        -0.139520
