19
Iteration:  1332
 C         0.099840        -0.410472        -0.232596
 C         1.560140        -0.113009        -0.075179
 C         2.169340        -0.895515         1.060370
 O         3.522647        -0.505543         1.293323
 C         4.145812         0.148750         0.222931
 C         4.012120        -0.622367        -1.245701
 C         2.603711         0.098219        -1.329472
 C         3.049859         1.251555        -0.457258
 O         1.789647         1.395050         0.211003
 H        -0.215979        -1.424067        -0.112801
 H        -0.357257         0.177911         0.585506
 H        -0.364057        -0.122353        -1.206535
 H         1.480089        -0.567348         1.844800
 H         1.984292        -1.944843         0.924256
 H         5.108233         0.433244         0.641436
 H         4.780732        -0.196880        -1.909189
 H         4.108451        -1.707733        -1.252435
 H         2.234235         0.105591        -2.297075
 H         3.516973         2.214766        -0.931178
