19
Iteration:  1457charge 0 multiplicity 1
 C         0.114231        -0.373310        -0.182332
 C         1.528266        -0.043168        -0.115350
 C         2.136130        -0.881995         1.046279
 O         3.536206        -0.565909         1.264853
 C         4.130257         0.257263         0.223003
 C         4.067392        -0.661526        -1.084920
 C         2.630590        -0.028668        -1.296063
 C         3.028423         1.235797        -0.550618
 O         1.796596         1.413933         0.147847
 H        -0.363778        -0.561910        -1.245604
 H        -0.377353        -1.155961         0.435900
 H        -0.376581         0.538236         0.163699
 H         1.616884        -0.771752         2.128553
 H         2.005814        -1.892505         0.691822
 H         5.098362         0.707702         0.372233
 H         4.668899        -0.322668        -1.925900
 H         4.137387        -1.757190        -0.893401
 H         2.192303         0.074222        -2.184289
 H         3.414162         2.205742        -0.956544
