19
Iteration:  4435charge 0 multiplicity 1
 C         0.073777        -0.313044        -0.240988
 C         1.557496        -0.112051        -0.036717
 C         2.193798        -0.262081         1.350211
 O         3.513315         0.325820         1.368444
 C         4.110799         0.161962         0.137172
 C         3.872011        -1.195950        -0.636963
 C         2.574536        -0.607516        -1.099756
 C         3.111803         0.810377        -0.951824
 O         1.941579         1.396157        -0.386222
 H        -0.313399         0.641453        -0.628742
 H        -0.212538        -1.191442        -0.893790
 H        -0.460650        -0.454024         0.769520
 H         1.548917         0.293796         2.076281
 H         2.203784        -1.408551         1.559309
 H         5.074267         0.561716         0.262537
 H         4.550662        -1.239258        -1.474740
 H         3.775820        -2.156304        -0.100892
 H         2.012285        -0.941411        -2.041939
 H         3.579936         1.271896        -1.841196
