19
Iteration:  3240
 C         0.079987        -0.443951        -0.257329
 C         1.576941        -0.100232        -0.094874
 C         2.183679        -0.785187         1.167098
 O         3.494460        -0.183944         1.301753
 C         4.101052         0.175464         0.142642
 C         3.845150        -0.840100        -1.094847
 C         2.555993        -0.002441        -1.369970
 C         3.122852         1.144853        -0.623339
 O         1.964389         1.375192         0.277306
 H        -0.354664        -1.342772         0.184107
 H        -0.535333         0.394300         0.126583
 H        -0.156699        -0.556781        -1.404388
 H         1.670804        -0.406156         2.064731
 H         2.218026        -1.811915         0.874826
 H         5.223318         0.392472         0.274813
 H         4.652424        -0.939213        -1.858962
 H         3.759354        -1.906195        -0.867233
 H         2.013916        -0.086956        -2.383985
 H         3.545572         2.120992        -1.031606
