19
Iteration:  4183charge 0 multiplicity 1
 C         0.102120        -0.362835        -0.232147
 C         1.590449        -0.058115         0.005977
 C         2.172360        -0.466252         1.323598
 O         3.468636         0.157747         1.327557
 C         4.094257         0.176692         0.060782
 C         3.809116        -1.103957        -0.775032
 C         2.592732        -0.379406        -1.280277
 C         3.164143         0.887588        -0.850905
 O         1.927322         1.395537        -0.134866
 H        -0.017522        -0.891765        -1.128569
 H        -0.368662        -0.965405         0.551485
 H        -0.435861         0.594221        -0.206710
 H         1.750003         0.008590         2.255456
 H         2.251073        -1.483686         1.594790
 H         5.125940         0.499421         0.238350
 H         4.578550        -1.322021        -1.611325
 H         3.786111        -2.144893        -0.289537
 H         2.160880        -0.470843        -2.334685
 H         3.495198         1.705560        -1.516667
