19
Iteration:  1887
 C         0.187035        -0.328086        -0.386762
 C         1.543873        -0.074784        -0.064598
 C         2.283697        -0.896714         1.064972
 O         3.474926        -0.187536         1.374006
 C         4.091062         0.162755         0.083163
 C         3.854721        -0.880848        -1.032779
 C         2.569713        -0.050602        -1.286983
 C         3.056462         1.270605        -0.623745
 O         1.893944         1.341102         0.319770
 H        -0.495458        -0.652341         0.410429
 H        -0.195592         0.580136        -0.825182
 H         0.079010        -1.169171        -1.112907
 H         1.661400        -0.923027         1.886136
 H         2.446187        -2.008726         0.708627
 H         5.139062         0.622855         0.287755
 H         4.533690        -0.900316        -1.836753
 H         3.753229        -1.921186        -0.690673
 H         1.971493        -0.075175        -2.291903
 H         3.131198         2.260345        -0.993941
