19
Iteration:  4547
 C         0.075707        -0.266561        -0.182863
 C         1.586948        -0.022587         0.005752
 C         2.171536        -0.202922         1.355889
 O         3.457558         0.339139         1.331675
 C         4.076538         0.214481         0.089932
 C         3.847777        -1.230473        -0.462946
 C         2.567020        -0.655333        -1.115167
 C         3.125468         0.759739        -1.052050
 O         1.994295         1.311551        -0.469111
 H         0.015007        -1.412047        -0.186123
 H        -0.578789        -0.015841         0.627962
 H        -0.229072         0.213735        -1.111517
 H         1.669957         0.464660         2.119334
 H         2.095205        -1.240056         1.538434
 H         5.099865         0.640143         0.266443
 H         4.644428        -1.535373        -1.225299
 H         3.738451        -2.138386         0.120640
 H         2.345316        -1.202103        -2.113684
 H         3.522082         1.368586        -1.849554
