19
Iteration:  3687
 C         0.094473        -0.333492        -0.108071
 C         1.569923        -0.027860        -0.110344
 C         2.179026        -0.603916         1.147258
 O         3.510675        -0.114923         1.414730
 C         4.025537         0.186061         0.090438
 C         3.929525        -0.968107        -0.904846
 C         2.662475        -0.223323        -1.391928
 C         3.066299         1.048252        -0.745038
 O         1.865528         1.362888         0.027466
 H        -0.024861        -1.373394         0.259124
 H        -0.293624         0.377877         0.574208
 H        -0.528166        -0.321864        -1.056497
 H         1.613457        -0.236061         2.005879
 H         2.222278        -1.641991         0.948377
 H         5.088420         0.438771         0.395218
 H         4.797420        -0.877809        -1.630147
 H         3.732774        -2.069486        -0.899017
 H         2.292057        -0.317712        -2.434498
 H         3.714771         1.822721        -1.299243
