19
Iteration:  1129
 C         0.169515        -0.363068        -0.438534
 C         1.573030        -0.109574        -0.110918
 C         2.263119        -1.016392         0.974916
 O         3.594261        -0.433328         1.264817
 C         4.092485         0.213141         0.119291
 C         3.817775        -0.674532        -1.185310
 C         2.558175         0.157363        -1.258234
 C         3.023554         1.331153        -0.367903
 O         1.840905         1.282070         0.441114
 H        -0.409239         0.560395        -0.174005
 H        -0.145697        -0.606776        -1.424442
 H        -0.354966        -1.107680         0.158364
 H         1.872630        -1.051278         1.906809
 H         2.432047        -2.099919         0.598342
 H         5.088082         0.589443         0.376529
 H         4.596003        -0.362412        -1.996274
 H         3.758979        -1.850942        -1.025421
 H         1.829646         0.287048        -2.222660
 H         3.363857         2.293118        -0.610779
