19
Iteration:   552charge 0 multiplicity 1
 C         0.100367        -0.379725        -0.420496
 C         1.557136        -0.063902        -0.085555
 C         2.220909        -1.008455         0.860203
 O         3.604212        -0.604661         1.139961
 C         4.108650         0.170452         0.159476
 C         3.901544        -0.489145        -1.210578
 C         2.566996         0.248426        -1.296202
 C         3.068056         1.290379        -0.238626
 O         1.776035         1.227031         0.561256
 H        -0.433655         0.600531        -0.165763
 H        -0.061004        -0.733380        -1.443900
 H        -0.281637        -1.223096         0.213036
 H         1.770779        -1.052323         1.840594
 H         2.248689        -2.074101         0.410104
 H         5.115220         0.520976         0.400167
 H         4.494680         0.092370        -1.966214
 H         4.139826        -1.565936        -1.312915
 H         2.188385         0.576258        -2.248221
 H         3.411920         2.362992        -0.481635
