19
Iteration:  1390
 C         0.181280        -0.365425        -0.485568
 C         1.539398        -0.086238         0.031583
 C         2.247315        -0.958320         1.076768
 O         3.555009        -0.256805         1.312832
 C         4.067651         0.196020         0.073401
 C         3.787495        -0.784521        -1.097501
 C         2.524141         0.071046        -1.343224
 C         3.078954         1.238317        -0.454225
 O         1.898864         1.309370         0.335936
 H         0.339031        -0.970855        -1.500445
 H        -0.341618        -1.037622         0.214093
 H        -0.306667         0.639148        -0.400646
 H         1.654270        -0.922944         2.137689
 H         2.373259        -1.975619         0.719402
 H         5.071920         0.451795         0.413997
 H         4.557809        -0.547815        -1.874991
 H         3.741173        -1.865847        -0.936291
 H         2.091491         0.103691        -2.241212
 H         3.404783         2.249158        -0.847170
