19
Iteration:  2376charge 0 multiplicity 1
 C         0.165287        -0.367419        -0.301045
 C         1.523493        -0.011276        -0.041422
 C         2.238538        -0.812052         1.039847
 O         3.531546        -0.292547         1.387630
 C         4.141993         0.140939         0.136047
 C         3.850383        -0.890197        -1.071360
 C         2.571741         0.017823        -1.310001
 C         3.105022         1.244303        -0.553314
 O         1.815589         1.381236         0.185698
 H        -0.221078        -1.140479         0.426947
 H        -0.661676         0.374272        -0.355675
 H         0.113207        -1.052738        -1.212070
 H         1.690412        -0.886044         1.980330
 H         2.384601        -1.908044         0.833507
 H         5.111996         0.467654         0.346876
 H         4.652171        -0.644419        -1.936960
 H         3.630980        -2.001128        -0.937020
 H         2.098015         0.098653        -2.274429
 H         3.452688         2.108004        -1.151629
