19
Iteration:   173
 C         0.069130        -0.294036        -0.288388
 C         1.558731        -0.135295        -0.086229
 C         2.316147        -1.253800         0.666228
 O         3.520341        -0.646735         1.151724
 C         4.036492         0.266668         0.170024
 C         4.004559        -0.326097        -1.290479
 C         2.568781         0.352543        -1.327826
 C         2.956884         1.318572        -0.190072
 O         1.870977         1.142694         0.651302
 H        -0.532955        -0.495890         0.637321
 H        -0.252594         0.618640        -1.001359
 H        -0.041600        -1.156626        -0.861563
 H         1.711096        -1.552756         1.484520
 H         2.456015        -2.111368         0.019890
 H         4.934740         0.641661         0.603617
 H         4.729404         0.171587        -2.060290
 H         4.196729        -1.386772        -1.470816
 H         1.929292         0.550594        -2.156832
 H         3.441478         2.318950        -0.195368
