19
Iteration:   498charge 0 multiplicity 1
 C         0.136249        -0.374843        -0.410262
 C         1.603484        -0.114456        -0.121682
 C         2.251831        -1.069333         0.814344
 O         3.548331        -0.605842         1.211552
 C         4.145652         0.167754         0.173851
 C         3.881881        -0.418188        -1.303339
 C         2.495109         0.273298        -1.270001
 C         3.052087         1.288205        -0.197048
 O         1.812213         1.227758         0.556834
 H        -0.227450         0.057126        -1.363774
 H         0.021652        -1.423156        -0.258535
 H        -0.411049         0.125600         0.336651
 H         1.634457        -1.091015         1.737212
 H         2.362083        -2.115730         0.325803
 H         5.157261         0.536560         0.370698
 H         4.494410         0.014268        -2.103686
 H         4.019833        -1.465829        -1.442447
 H         1.887564         0.721583        -2.164116
 H         3.459162         2.337893        -0.277354
