19
Iteration:  1081
 C         0.058489        -0.556988        -0.242735
 C         1.554358        -0.101099        -0.113619
 C         2.177564        -0.892015         1.020124
 O         3.513868        -0.665291         1.205574
 C         4.146372         0.184378         0.138225
 C         3.975487        -0.473295        -1.288490
 C         2.588994         0.163272        -1.245133
 C         3.106881         1.280748        -0.366309
 O         1.819016         1.435909         0.331362
 H        -0.489568         0.303157        -0.542129
 H         0.027192        -1.226345        -1.114934
 H        -0.422935        -1.065147         0.618099
 H         1.638310        -0.514223         1.947062
 H         1.976358        -1.942011         0.930383
 H         5.178990         0.323748         0.493984
 H         4.670743         0.002855        -1.950159
 H         4.074569        -1.499205        -1.264173
 H         2.049226         0.435663        -2.328716
 H         3.635373         2.275279        -0.531321
