19
Iteration:  4199charge 0 multiplicity 1
 C         0.169283        -0.366321        -0.231461
 C         1.616211        -0.067847        -0.035294
 C         2.142791        -0.395268         1.375992
 O         3.523680         0.093613         1.472613
 C         4.109012         0.144833         0.090185
 C         3.846410        -1.111109        -0.825562
 C         2.507905        -0.425478        -1.266169
 C         3.067969         1.010867        -0.972955
 O         1.965330         1.369266        -0.177382
 H        -0.054000        -0.422436        -1.363296
 H        -0.169377        -1.290065         0.299757
 H        -0.460406         0.535546         0.120103
 H         1.461608         0.074538         2.057498
 H         2.071903        -1.532563         1.496105
 H         5.130858         0.518557         0.326018
 H         4.586673        -1.066086        -1.573713
 H         3.630951        -1.930760        -0.237811
 H         1.926806        -0.763695        -2.109765
 H         3.505317         1.697686        -1.692689
