19
Iteration:  4520charge 0 multiplicity 1
 C         0.093642        -0.361774        -0.164985
 C         1.577725        -0.071966        -0.053218
 C         2.166535        -0.214876         1.363077
 O         3.484837         0.375448         1.391589
 C         4.134495         0.130183         0.123441
 C         3.848109        -1.282541        -0.488629
 C         2.527422        -0.604484        -1.190164
 C         3.174961         0.809338        -1.068190
 O         1.926880         1.429113        -0.446420
 H        -0.183122        -0.997910         0.657038
 H        -0.533983         0.584030         0.067280
 H        -0.203083        -0.713871        -1.197667
 H         1.567132         0.422958         1.977581
 H         2.026635        -1.321501         1.633505
 H         5.150420         0.432793         0.327847
 H         4.578870        -1.481578        -1.226423
 H         3.837030        -2.272864         0.010855
 H         2.247125        -1.073011        -2.071140
 H         3.615817         1.415222        -1.906691
