19
Iteration:  1568
 C         0.103099        -0.383568        -0.186407
 C         1.573140        -0.049370        -0.126272
 C         2.103523        -0.803861         1.121429
 O         3.520237        -0.468375         1.332496
 C         4.054908         0.218715         0.145532
 C         3.970585        -0.658474        -1.122921
 C         2.636826        -0.016839        -1.346801
 C         3.102702         1.222357        -0.545317
 O         1.842395         1.315950         0.135575
 H        -0.382292         0.476160         0.212447
 H        -0.047145        -0.552818        -1.312792
 H        -0.141856        -1.253018         0.447218
 H         1.557306        -0.448464         2.131087
 H         1.936318        -1.869334         0.960708
 H         5.092612         0.464324         0.340189
 H         4.743083        -0.235232        -1.723709
 H         4.095495        -1.773537        -1.001922
 H         2.197207        -0.125397        -2.224638
 H         3.570366         2.095640        -0.920408
