19
Iteration:  4507charge 0 multiplicity 1
 C         0.016854        -0.362786        -0.126630
 C         1.552160         0.000925        -0.036833
 C         2.161025        -0.184111         1.381579
 O         3.493905         0.280191         1.381869
 C         4.111290         0.127572         0.161953
 C         3.812554        -1.218294        -0.548684
 C         2.681396        -0.576091        -1.178023
 C         3.124746         0.836435        -1.039550
 O         1.967355         1.339520        -0.529931
 H        -0.387652        -0.848652         0.744737
 H        -0.550921         0.546196        -0.433802
 H        -0.097380        -1.076816        -0.904588
 H         1.649981         0.441104         2.218133
 H         2.294035        -1.268912         1.828492
 H         5.214224         0.412764         0.205567
 H         4.668321        -1.409577        -1.292204
 H         3.562409        -2.056356         0.149631
 H         2.146447        -0.898412        -2.030876
 H         3.566064         1.468344        -1.835036
