19
Iteration:  3168
 C         0.131990        -0.292788        -0.257766
 C         1.549052        -0.095765        -0.045940
 C         2.172074        -0.752934         1.116668
 O         3.515400        -0.324294         1.230734
 C         4.143099         0.215673         0.089670
 C         3.930459        -0.740623        -1.056430
 C         2.544541        -0.188664        -1.322274
 C         3.094278         1.157194        -0.550112
 O         1.870396         1.321408         0.254826
 H        -0.468858        -0.147568         0.685243
 H        -0.174048         0.572469        -0.855625
 H        -0.246222        -1.205640        -0.698855
 H         1.543161        -0.405573         1.961384
 H         2.162595        -1.863317         1.021218
 H         5.107247         0.592937         0.454944
 H         4.523408        -0.444613        -1.933549
 H         4.151290        -1.857150        -1.069156
 H         2.079224        -0.187759        -2.274481
 H         3.328827         2.054201        -1.072530
