19
Iteration:  3982charge 0 multiplicity 1
 C         0.034624        -0.271954        -0.216618
 C         1.563482        -0.031245         0.048749
 C         2.168171        -0.649534         1.261536
 O         3.603650        -0.190857         1.388529
 C         4.104904         0.233033         0.078092
 C         3.930876        -0.942867        -0.866120
 C         2.530459        -0.309950        -1.215460
 C         3.037927         1.057054        -0.860399
 O         1.885187         1.430379        -0.126332
 H        -0.136133         0.150944        -1.249619
 H        -0.033374        -1.309146        -0.513573
 H        -0.686962         0.057460         0.478413
 H         1.628853        -0.183925         2.082494
 H         2.154285        -1.760395         1.496590
 H         5.191956         0.594074         0.253168
 H         4.701866        -0.986994        -1.676794
 H         4.090794        -1.973406        -0.360704
 H         2.244412        -0.541823        -2.235992
 H         3.539546         1.805803        -1.559945
