19
Iteration:  1157
 C         0.069621        -0.283115        -0.316529
 C         1.522784        -0.116583        -0.113272
 C         2.331383        -1.039980         0.877939
 O         3.494410        -0.382577         1.335922
 C         4.106663         0.220030         0.156515
 C         3.929734        -0.592917        -1.215842
 C         2.521854         0.089304        -1.337500
 C         3.034435         1.207428        -0.427377
 O         1.904149         1.226149         0.447735
 H        -0.443111         0.694918        -0.179529
 H        -0.188684        -0.473126        -1.451943
 H        -0.530497        -1.125691         0.127048
 H         1.788567        -1.099106         1.978040
 H         2.582524        -1.991133         0.471197
 H         5.031751         0.692956         0.509154
 H         4.632754        -0.202513        -1.895602
 H         4.167432        -1.594735        -1.056145
 H         1.902327         0.204592        -2.123719
 H         3.445101         2.269457        -0.722500
