19
Iteration:  1419charge 0 multiplicity 1
 C         0.055498        -0.386380        -0.330413
 C         1.534920        -0.132639        -0.086526
 C         2.181733        -0.860478         0.996697
 O         3.565210        -0.369937         1.372595
 C         4.111594         0.181553         0.139940
 C         3.931915        -0.718821        -1.097150
 C         2.586970         0.042063        -1.351102
 C         3.064822         1.222503        -0.474201
 O         1.866588         1.350541         0.259777
 H        -0.273185        -0.704298        -1.253951
 H        -0.224882        -0.998789         0.495292
 H        -0.256328         0.646765        -0.041157
 H         1.670548        -0.790484         1.939805
 H         2.281924        -1.973387         0.747318
 H         5.097094         0.438213         0.535018
 H         4.660885        -0.357212        -1.860361
 H         4.072843        -1.789119        -1.100322
 H         2.116551         0.129096        -2.465175
 H         3.299237         2.224606        -1.004240
