19
Iteration:  4353
 C         0.067970        -0.342548        -0.153011
 C         1.551144        -0.081545         0.000407
 C         2.130817        -0.230264         1.311322
 O         3.513771         0.140891         1.449923
 C         4.111425         0.161806         0.102684
 C         3.918646        -1.152556        -0.712177
 C         2.558035        -0.549236        -1.257432
 C         3.152710         0.881928        -0.889885
 O         1.910073         1.382818        -0.384555
 H        -0.154005        -1.495756        -0.170793
 H        -0.643125         0.180837         0.641579
 H        -0.143488         0.091650        -1.162390
 H         1.751167         0.427068         2.082845
 H         2.074520        -1.226047         1.782588
 H         5.079907         0.695827         0.357830
 H         4.588297        -1.225391        -1.594510
 H         4.017861        -2.117806        -0.263728
 H         2.040305        -0.660802        -2.186561
 H         3.681915         1.402116        -1.699590
