19
Iteration:  3479charge 0 multiplicity 1
 C         0.153254        -0.357271        -0.307336
 C         1.613118        -0.043205        -0.034787
 C         2.182320        -0.701082         1.201956
 O         3.558645        -0.093155         1.387896
 C         4.082812         0.174409         0.062271
 C         3.801263        -0.933703        -0.931503
 C         2.516557        -0.254981        -1.248063
 C         3.078998         1.069911        -0.746885
 O         1.894193         1.427837         0.052007
 H        -0.297492        -0.672561         0.608010
 H        -0.284345         0.523667        -0.634362
 H         0.170806        -1.205063        -1.007387
 H         1.593190        -0.360039         2.042922
 H         2.271704        -1.786697         0.982028
 H         5.123858         0.499381         0.246955
 H         4.645306        -0.916590        -1.646183
 H         3.788550        -1.942792        -0.492310
 H         2.003805        -0.232731        -2.225625
 H         3.561598         1.990071        -1.190930
