19
Iteration:   238charge 0 multiplicity 1
 C         0.120096        -0.443882        -0.422327
 C         1.570500        -0.125118        -0.120941
 C         2.212963        -1.097582         0.803822
 O         3.624345        -0.765407         1.060810
 C         4.180500         0.162128         0.151955
 C         3.897002        -0.295319        -1.294541
 C         2.530728         0.456693        -1.231844
 C         3.008510         1.345924        -0.098051
 O         1.792505         1.195278         0.616561
 H        -0.683194        -0.150084         0.325097
 H        -0.255740         0.051857        -1.460167
 H         0.004087        -1.477637        -0.518235
 H         1.774764        -0.961273         1.827086
 H         2.139403        -2.168475         0.473676
 H         5.174701         0.423458         0.407460
 H         4.679704         0.108178        -2.102245
 H         3.894449        -1.399840        -1.363236
 H         2.061390         0.911156        -2.096090
 H         3.262652         2.424487        -0.106094
