19
Iteration:  3637
 C         0.089647        -0.348481        -0.360571
 C         1.526318         0.036821        -0.021255
 C         2.229033        -0.614659         1.279229
 O         3.658314        -0.155274         1.383829
 C         4.092952         0.183991         0.071348
 C         3.968036        -1.008125        -0.903419
 C         2.445171        -0.342243        -1.256714
 C         2.992639         1.080338        -0.714765
 O         1.864184         1.483131        -0.004114
 H         0.137318        -1.243749        -0.989917
 H        -0.624953        -0.426591         0.547249
 H        -0.417362         0.387576        -0.971421
 H         1.788218        -0.143987         2.182557
 H         2.283651        -1.813840         1.112892
 H         5.083199         0.527285         0.445263
 H         4.640447        -0.923449        -1.797065
 H         4.070336        -1.972634        -0.467202
 H         2.108499        -0.635228        -2.252045
 H         3.409106         1.849636        -1.341995
