19
Iteration:  2039
 C         0.154513        -0.365584        -0.245816
 C         1.586584        -0.045697        -0.103968
 C         2.199195        -0.889321         1.066242
 O         3.488023        -0.299504         1.304743
 C         4.106641         0.215928         0.162681
 C         3.908556        -0.788382        -1.033551
 C         2.569340        -0.032429        -1.329974
 C         3.083668         1.218975        -0.535078
 O         1.850015         1.357511         0.175443
 H        -0.258002        -0.100806         0.742916
 H        -0.313683         0.156494        -1.055695
 H         0.105516        -1.459080        -0.511998
 H         1.489142        -0.718591         1.917668
 H         2.186247        -1.854785         0.611136
 H         5.121624         0.615580         0.488991
 H         4.653897        -0.778886        -1.880689
 H         3.674368        -1.953044        -0.779114
 H         2.096861        -0.041819        -2.366734
 H         3.496280         2.140533        -0.942667
