19
Iteration:  1408charge 0 multiplicity 1
 C         0.056256        -0.350768        -0.364993
 C         1.623157        -0.070516        -0.129467
 C         2.287992        -0.891866         1.075496
 O         3.513274        -0.306798         1.365958
 C         4.142832         0.157373         0.164888
 C         3.877056        -0.726905        -1.174026
 C         2.560069         0.022828        -1.287765
 C         3.049404         1.207475        -0.495341
 O         1.850311         1.302411         0.310934
 H        -0.058508        -0.741006        -1.311586
 H        -0.432496        -1.078471         0.255162
 H        -0.601425         0.576451        -0.327871
 H         1.552926        -0.815118         1.824695
 H         2.366709        -1.967687         0.715716
 H         5.158679         0.533850         0.361890
 H         4.624742        -0.441791        -1.937185
 H         3.832379        -1.787353        -0.982559
 H         1.985436         0.141151        -2.332320
 H         3.558087         2.169266        -0.879671
