19
Iteration:  1352charge 0 multiplicity 1
 C         0.101212        -0.420412        -0.338163
 C         1.605355        -0.020863        -0.098499
 C         2.169844        -0.849935         1.111317
 O         3.591835        -0.476015         1.264151
 C         4.110501         0.206447         0.138277
 C         3.874812        -0.680116        -1.113911
 C         2.575112         0.074255        -1.314103
 C         3.066999         1.214249        -0.424133
 O         1.820651         1.330342         0.248063
 H         0.031140        -1.328621        -0.781614
 H        -0.561535        -0.397770         0.550404
 H        -0.339390         0.182484        -1.107434
 H         1.697581        -0.695031         2.023168
 H         2.119928        -1.974415         0.856532
 H         5.112140         0.637038         0.285186
 H         4.640061        -0.412434        -1.840264
 H         4.009410        -1.772005        -0.947098
 H         2.078049         0.300017        -2.394526
 H         3.530295         2.195451        -0.693564
