19
Iteration:  1547
 C         0.079536        -0.419485        -0.329413
 C         1.567971        -0.015327        -0.080897
 C         2.241704        -0.859926         1.054494
 O         3.549804        -0.396523         1.342901
 C         4.162962         0.185146         0.135036
 C         3.935774        -0.761347        -1.099781
 C         2.541026        -0.028587        -1.265631
 C         3.042740         1.205018        -0.515633
 O         1.812369         1.440015         0.192207
 H        -0.445990         0.522288        -0.329569
 H        -0.047011        -0.888670        -1.408598
 H        -0.402302        -1.031637         0.498976
 H         1.679307        -0.618658         2.038198
 H         2.230441        -1.948360         0.872510
 H         5.147029         0.464578         0.545407
 H         4.650293        -0.470800        -1.893451
 H         3.826170        -1.870847        -0.906228
 H         2.160770         0.140799        -2.162627
 H         3.508764         2.032635        -0.921201
