19
Iteration:   322charge 0 multiplicity 1
 C         0.070012        -0.339179        -0.251241
 C         1.627574        -0.160869        -0.076849
 C         2.257042        -1.176668         0.809829
 O         3.524809        -0.807400         1.084353
 C         4.024324         0.270167         0.212591
 C         4.071789        -0.275224        -1.306126
 C         2.595781         0.387684        -1.325031
 C         3.032670         1.336114        -0.286473
 O         1.769856         1.174222         0.549239
 H        -0.364465        -1.001395         0.568533
 H        -0.338800         0.617955        -0.036403
 H        -0.127538        -0.550075        -1.354412
 H         1.578227        -1.229361         1.746668
 H         2.084680        -2.115437         0.324941
 H         4.941697         0.675339         0.804158
 H         4.745187         0.179059        -1.938596
 H         4.111879        -1.372236        -1.272824
 H         2.019441         0.711930        -2.315081
 H         3.448024         2.379979        -0.309286
