19
Iteration:  1905charge 0 multiplicity 1
 C         0.158624        -0.377131        -0.360269
 C         1.635112        -0.086518        -0.072003
 C         2.240226        -0.841031         1.069129
 O         3.516991        -0.244211         1.338579
 C         4.081297         0.225449         0.188825
 C         3.777385        -0.767758        -1.025583
 C         2.535961        -0.027642        -1.381342
 C         3.072819         1.157184        -0.543810
 O         1.913401         1.336611         0.231145
 H        -0.401707        -0.538156         0.543964
 H        -0.504774         0.434604        -0.765704
 H        -0.045498        -1.317713        -0.959123
 H         1.587589        -0.755808         1.966044
 H         2.348155        -1.926190         0.861130
 H         5.080762         0.398159         0.344248
 H         4.577963        -0.511294        -1.767906
 H         3.755988        -1.930518        -0.823108
 H         2.039601        -0.047687        -2.333363
 H         3.624109         2.022928        -1.005464
