19
Iteration:  3666
 C         0.138246        -0.382524        -0.103166
 C         1.607911        -0.116181        -0.107214
 C         2.115007        -0.643989         1.256005
 O         3.490423        -0.143707         1.389341
 C         4.119529         0.188094         0.111414
 C         3.874324        -0.920380        -0.969138
 C         2.535018        -0.207411        -1.303441
 C         3.139963         1.142147        -0.726625
 O         1.906005         1.375084        -0.092944
 H        -0.270702        -1.383773        -0.282895
 H        -0.316372         0.032909         0.767087
 H        -0.179343         0.084770        -1.055355
 H         1.476261        -0.018953         1.907910
 H         2.049460        -1.664260         1.350334
 H         5.182981         0.454680         0.540413
 H         4.639134        -0.889242        -1.882181
 H         3.989961        -2.011988        -0.628990
 H         2.190624        -0.385486        -2.329699
 H         3.498798         2.058489        -1.358155
