19
Iteration:  1298
 C         0.020185        -0.328766        -0.243544
 C         1.607746        -0.098720        -0.079039
 C         2.231584        -1.000182         0.936758
 O         3.495560        -0.454262         1.244226
 C         4.118706         0.272394         0.213299
 C         3.986122        -0.644297        -1.138457
 C         2.558891         0.055463        -1.324009
 C         3.037428         1.203115        -0.468997
 O         1.855995         1.333341         0.300016
 H        -0.469552        -0.946899         0.436701
 H        -0.451242         0.706799        -0.214671
 H        -0.154143        -0.581019        -1.281875
 H         1.785077        -0.958810         1.898684
 H         2.353744        -2.028768         0.631698
 H         5.039598         0.767765         0.552411
 H         4.786337        -0.367285        -1.817340
 H         4.121645        -1.711165        -0.862120
 H         2.089975         0.036480        -2.304105
 H         3.506264         2.194714        -0.825155
