19
Iteration:  3728charge 0 multiplicity 1
 C         0.125332        -0.293849        -0.278527
 C         1.576713        -0.064447         0.005342
 C         2.208133        -0.713258         1.224173
 O         3.569658        -0.152669         1.363018
 C         4.079619         0.207675         0.102931
 C         3.832504        -0.939831        -0.908386
 C         2.559572        -0.274817        -1.239013
 C         3.062175         1.096040        -0.796456
 O         1.890999         1.434700         0.027643
 H        -0.367258        -1.093803         0.335074
 H        -0.382747         0.673058        -0.300422
 H         0.015630        -0.536639        -1.396647
 H         1.703673        -0.588035         2.212300
 H         2.412813        -1.868278         1.025415
 H         5.047880         0.638140         0.174870
 H         4.474369        -0.726472        -1.672411
 H         3.927315        -1.945028        -0.491102
 H         2.142998        -0.430617        -2.262830
 H         3.290796         1.854150        -1.522820
