19
Iteration:  3744charge 0 multiplicity 1
 C         0.105117        -0.275920        -0.331183
 C         1.568827        -0.042202        -0.018626
 C         2.236971        -0.598763         1.239683
 O         3.562446        -0.136009         1.383317
 C         4.088507         0.225760         0.084361
 C         3.989680        -0.968823        -0.992751
 C         2.478694        -0.276100        -1.322042
 C         3.012754         1.036218        -0.711609
 O         1.899296         1.332600         0.084452
 H        -0.323398        -0.920920         0.421849
 H        -0.549598         0.609379        -0.211995
 H         0.004788        -0.673320        -1.298441
 H         1.571054        -0.232610         2.047684
 H         1.992490        -1.695754         1.272021
 H         5.135018         0.689217         0.331601
 H         4.741373        -0.988542        -1.928746
 H         3.871083        -1.982355        -0.551497
 H         1.831462        -0.452616        -2.184140
 H         3.539019         1.995268        -1.087704
