19
Iteration:  4060
 C         0.207027        -0.375989        -0.244550
 C         1.649421        -0.003285        -0.038877
 C         2.240564        -0.543601         1.190916
 O         3.524821        -0.053086         1.380272
 C         4.100755         0.175739         0.143602
 C         3.801012        -1.142958        -0.782603
 C         2.437919        -0.288865        -1.251893
 C         3.034785         1.079994        -0.854937
 O         1.886437         1.444595        -0.096990
 H        -0.406327         0.210756         0.448420
 H        -0.054836        -0.187879        -1.259326
 H         0.061127        -1.366561        -0.115333
 H         1.754451        -0.236978         2.084154
 H         2.374925        -1.582694         1.213420
 H         5.190261         0.591767         0.238383
 H         4.533746        -1.103954        -1.528898
 H         3.727468        -2.016039        -0.134137
 H         1.924714        -0.429301        -2.185426
 H         3.617156         1.747535        -1.570212
