19
Iteration:   997charge 0 multiplicity 1
 C         0.084754        -0.330591        -0.361394
 C         1.561086        -0.115706        -0.125998
 C         2.248290        -1.044320         0.915661
 O         3.540629        -0.453342         1.280869
 C         4.127056         0.221918         0.134070
 C         3.886084        -0.519275        -1.182589
 C         2.559628         0.115276        -1.321130
 C         3.016117         1.258440        -0.413778
 O         1.878099         1.252033         0.494658
 H        -0.237892        -0.048415        -1.471079
 H        -0.325693        -1.314096        -0.127351
 H        -0.432842         0.365800         0.387901
 H         1.704937        -1.212782         1.885949
 H         2.429739        -2.114009         0.421575
 H         5.087289         0.564236         0.457795
 H         4.696195        -0.132480        -1.958784
 H         4.067272        -1.693595        -1.315957
 H         2.033037         0.258461        -2.158472
 H         3.444644         2.204528        -0.585663
