19
Iteration:   732charge 0 multiplicity 1
 C         0.064332        -0.342064        -0.295270
 C         1.595645        -0.106344        -0.122446
 C         2.183359        -1.076380         0.933449
 O         3.556147        -0.593501         1.282196
 C         4.079705         0.224780         0.200294
 C         3.969507        -0.496492        -1.237008
 C         2.595723         0.175547        -1.279721
 C         3.030433         1.322565        -0.400387
 O         1.839779         1.274902         0.346580
 H        -0.113568        -0.916894        -1.164233
 H        -0.314744        -0.863379         0.630711
 H        -0.582674         0.558561        -0.334565
 H         1.609747        -0.879774         1.865345
 H         2.341574        -2.121574         0.655267
 H         5.111866         0.475695         0.609901
 H         4.700323        -0.042988        -1.894666
 H         4.110200        -1.570920        -1.348114
 H         2.076411         0.421163        -2.309474
 H         3.464235         2.298835        -0.680717
