19
Iteration:   743
 C         0.073975        -0.357048        -0.347118
 C         1.558786        -0.130451        -0.123029
 C         2.280084        -0.978932         0.888649
 O         3.532645        -0.491587         1.286550
 C         4.119710         0.176269         0.183727
 C         3.967084        -0.533164        -1.160778
 C         2.514003         0.166873        -1.330691
 C         3.080353         1.264971        -0.364629
 O         1.845477         1.240494         0.435918
 H        -0.163652        -0.755091        -1.299255
 H        -0.437001        -1.072164         0.396957
 H        -0.241841         0.717250        -0.306723
 H         1.633452        -1.107988         1.796913
 H         2.150814        -1.971193         0.449638
 H         5.171908         0.499935         0.504271
 H         4.428300        -0.027089        -1.995163
 H         3.980896        -1.603605        -1.310898
 H         1.992609         0.414000        -2.384282
 H         3.273318         2.302451        -0.680278
