19
Iteration:  4956charge 0 multiplicity 1
 C         0.132295        -0.302294        -0.057721
 C         1.539539         0.014473        -0.044417
 C         2.088564         0.176880         1.341022
 O         3.413932         0.604718         1.341842
 C         4.196388         0.115301         0.178548
 C         3.882966        -1.330338        -0.228100
 C         2.535385        -0.841952        -0.964214
 C         3.147303         0.489010        -1.197424
 O         2.015172         1.236384        -0.854553
 H        -0.124353        -1.381672        -0.024088
 H        -0.390997        -0.008332         0.912918
 H        -0.383756         0.229522        -1.002926
 H         1.417839         0.959289         1.808117
 H         1.954134        -0.687863         1.950123
 H         5.187886         0.542001         0.415427
 H         4.418024        -1.455693        -1.139777
 H         3.972194        -2.177038         0.394317
 H         2.064021        -1.389274        -1.759258
 H         3.717215         0.769934        -2.048461
