19
Iteration:  2349charge 0 multiplicity 1
 C         0.113224        -0.348194        -0.346778
 C         1.552026        -0.159097        -0.081038
 C         2.153008        -0.720012         1.184993
 O         3.561958        -0.491658         1.323270
 C         4.072111         0.258590         0.110164
 C         3.967562        -0.733968        -1.067313
 C         2.548490        -0.064670        -1.287287
 C         3.060517         1.220328        -0.578183
 O         1.889559         1.375856         0.188708
 H        -0.352788        -0.942397         0.434742
 H        -0.409945         0.595062        -0.270683
 H        -0.087173        -0.763560        -1.294002
 H         1.686017        -0.435439         2.180098
 H         2.177517        -1.829152         1.273624
 H         5.065906         0.746058         0.462500
 H         4.513296        -0.447493        -1.946136
 H         4.007870        -1.788813        -0.906641
 H         2.116262        -0.019076        -2.347515
 H         3.420824         1.987222        -1.318942
