19
Iteration:  2781
 C         0.065073        -0.351566        -0.356948
 C         1.534683        -0.098138        -0.103442
 C         2.268635        -0.896164         1.055483
 O         3.610537        -0.309712         1.302703
 C         4.111033         0.190601         0.124183
 C         3.833472        -0.847765        -0.992455
 C         2.536651        -0.005527        -1.273232
 C         3.050104         1.262702        -0.561127
 O         1.896152         1.405605         0.272018
 H        -0.610394         0.480663        -0.690514
 H         0.068966        -1.117485        -1.208387
 H        -0.446826        -0.853962         0.420942
 H         1.748346        -0.909539         1.995552
 H         2.520771        -1.934544         0.719104
 H         5.085479         0.559051         0.315628
 H         4.472686        -0.529846        -1.794715
 H         3.683009        -1.867948        -0.737389
 H         2.152016         0.068159        -2.294219
 H         3.389785         2.216863        -0.953286
