19
Iteration:  3322charge 0 multiplicity 1
 C         0.058170        -0.413429        -0.098500
 C         1.555983        -0.070055        -0.097262
 C         2.193342        -0.653876         1.083444
 O         3.442764        -0.265503         1.342657
 C         4.176341         0.118918         0.124641
 C         3.985319        -0.831812        -1.071940
 C         2.602564        -0.087105        -1.324986
 C         3.094230         1.152510        -0.637631
 O         1.906097         1.377872         0.086236
 H        -0.231421        -0.911069        -1.023855
 H        -0.327002        -1.087852         0.680833
 H        -0.464260         0.461778        -0.036411
 H         1.527090        -0.355689         1.904069
 H         1.862501        -1.733797         1.086169
 H         5.174101         0.345169         0.422490
 H         4.623694        -0.393922        -1.831054
 H         3.878339        -1.900074        -0.781039
 H         2.014273        -0.167401        -2.206351
 H         3.338532         2.057368        -1.143833
