19
Iteration:  4510
 C         0.030939        -0.359154        -0.128019
 C         1.525246        -0.011986        -0.029091
 C         2.192546        -0.196274         1.394550
 O         3.487819         0.298967         1.373532
 C         4.117573         0.117061         0.161768
 C         3.817146        -1.233414        -0.527930
 C         2.684899        -0.592335        -1.183768
 C         3.126347         0.843060        -1.059891
 O         1.967585         1.367282        -0.518487
 H        -0.367146        -0.936619         0.709627
 H        -0.561012         0.602966        -0.336769
 H        -0.116492        -1.081874        -1.004049
 H         1.612142         0.354024         2.062623
 H         2.210548        -1.208571         1.831650
 H         5.133770         0.404068         0.297318
 H         4.540409        -1.357414        -1.239352
 H         3.590327        -2.122272         0.069334
 H         2.166959        -0.878711        -2.062498
 H         3.535824         1.470909        -1.891685
