19
Iteration:  4682
 C         0.096006        -0.271613        -0.141994
 C         1.584074        -0.038131        -0.033198
 C         2.143525        -0.036957         1.405230
 O         3.466414         0.430407         1.328333
 C         4.098571         0.130735         0.101590
 C         3.862959        -1.237672        -0.361884
 C         2.574821        -0.794962        -1.121466
 C         3.101129         0.706890        -1.067938
 O         1.984869         1.304156        -0.600942
 H        -0.487470         0.063586         0.645663
 H        -0.391492         0.169399        -1.026597
 H        -0.035676        -1.316579        -0.256211
 H         1.519902         0.690307         2.023824
 H         1.996368        -0.979146         1.866129
 H         5.142581         0.450719         0.096650
 H         4.640292        -1.486864        -1.144984
 H         3.936226        -2.134467         0.332965
 H         2.288227        -1.289044        -2.017631
 H         3.602294         1.289132        -1.877138
