19
Iteration:  2171charge 0 multiplicity 1
 C         0.107417        -0.342242        -0.207579
 C         1.540567        -0.083602        -0.131310
 C         2.152606        -0.868197         1.033312
 O         3.515458        -0.324381         1.388339
 C         4.081472         0.193340         0.160224
 C         3.985902        -0.759573        -1.107811
 C         2.561486        -0.008604        -1.337118
 C         3.056932         1.203704        -0.594700
 O         1.893537         1.325313         0.163597
 H        -0.408350         0.302175         0.522743
 H        -0.188453        -0.024651        -1.181226
 H        -0.135482        -1.311221         0.159650
 H         1.568206        -0.770751         2.034484
 H         2.216588        -1.933190         0.828786
 H         5.007867         0.656239         0.591530
 H         4.847421        -0.463976        -1.666636
 H         4.036050        -1.886837        -0.903597
 H         2.163449        -0.045639        -2.388290
 H         3.473761         2.135185        -0.940203
