19
Iteration:  3911charge 0 multiplicity 1
 C         0.069914        -0.365455        -0.127613
 C         1.633140         0.012586        -0.133812
 C         2.143653        -0.596438         1.143703
 O         3.558556        -0.107426         1.376031
 C         4.087103         0.165566         0.143344
 C         3.888800        -1.062140        -0.921162
 C         2.593509        -0.222078        -1.272733
 C         3.109437         1.105019        -0.736549
 O         1.871322         1.399690        -0.047801
 H         0.051384        -1.251284        -0.707583
 H        -0.343842        -0.774381         0.767103
 H        -0.546149         0.489674        -0.450702
 H         1.619438        -0.240251         2.050483
 H         2.059879        -1.673019         1.312500
 H         5.076436         0.482673         0.283131
 H         4.577486        -0.931263        -1.823636
 H         3.785211        -2.087706        -0.573953
 H         2.119263        -0.373106        -2.256243
 H         3.383667         1.939780        -1.331315
