19
Iteration:  2358charge 0 multiplicity 1
 C         0.162347        -0.399910        -0.323601
 C         1.622406        -0.032710        -0.110430
 C         2.204207        -0.796335         1.189834
 O         3.570455        -0.410243         1.298900
 C         4.043689         0.190474         0.120384
 C         3.903895        -0.724714        -1.037688
 C         2.549128        -0.107209        -1.325456
 C         3.036414         1.200371        -0.546472
 O         1.870605         1.412228         0.185256
 H        -0.448050        -1.046833         0.354906
 H        -0.296230         0.645398        -0.336409
 H        -0.092929        -0.783694        -1.281595
 H         1.509206        -0.489794         2.021631
 H         2.014346        -1.846386         0.986252
 H         5.084652         0.576778         0.325784
 H         4.467683        -0.524235        -1.854506
 H         3.904827        -1.788139        -0.759676
 H         1.933122        -0.130264        -2.244725
 H         3.570000         2.085681        -0.884450
