19
Iteration:  1932
 C         0.070247        -0.400092        -0.269393
 C         1.588892        -0.049397        -0.039397
 C         2.145206        -0.757513         1.127418
 O         3.564820        -0.430236         1.304856
 C         4.146860         0.141774         0.185294
 C         4.006021        -0.763178        -1.126434
 C         2.670501        -0.012438        -1.307370
 C         3.021897         1.235607        -0.538052
 O         1.773115         1.427477         0.121476
 H        -0.597642        -0.394302         0.659189
 H        -0.581503         0.114613        -0.936468
 H        -0.101952        -1.463765        -0.445246
 H         1.482878        -0.414333         1.948153
 H         1.948740        -1.918056         1.003969
 H         5.289172         0.349826         0.441965
 H         4.716752        -0.484027        -1.905526
 H         4.051409        -1.826620        -1.039359
 H         2.007312        -0.058601        -2.263872
 H         3.548651         2.096976        -0.998189
