19
Iteration:  2548charge 0 multiplicity 1
 C         0.195246        -0.355638        -0.316812
 C         1.573481        -0.031834        -0.061015
 C         2.221457        -0.881576         1.090100
 O         3.544036        -0.466925         1.308119
 C         4.104693         0.210657         0.122135
 C         3.916665        -0.717984        -1.142817
 C         2.512640         0.034496        -1.283973
 C         3.005780         1.232069        -0.496435
 O         1.854148         1.345784         0.235400
 H        -0.052686         0.214393        -1.213730
 H         0.000519        -1.420112        -0.499502
 H        -0.582432         0.098508         0.446387
 H         1.788214        -0.536253         2.070266
 H         2.133488        -1.973739         1.006540
 H         5.181071         0.349575         0.435110
 H         4.565117        -0.500690        -2.020365
 H         3.859617        -1.759675        -0.920262
 H         2.029124         0.040238        -2.330570
 H         3.311332         2.231485        -0.928951
