19
Iteration:  2718charge 0 multiplicity 1
 C         0.033664        -0.322973        -0.278209
 C         1.507604        -0.125161        -0.022524
 C         2.155486        -0.766403         1.122740
 O         3.596812        -0.519737         1.251057
 C         4.147388         0.250237         0.151293
 C         4.032644        -0.680863        -1.157564
 C         2.573907        -0.005049        -1.301187
 C         3.007648         1.211779        -0.501382
 O         1.840811         1.348074         0.200106
 H        -0.232112         0.030442        -1.315854
 H         0.011322        -1.482177        -0.246188
 H        -0.544489         0.258237         0.493327
 H         1.572088        -0.580154         2.051550
 H         2.214785        -1.855416         0.884660
 H         5.112188         0.664861         0.531905
 H         4.657967        -0.711760        -2.107046
 H         4.125439        -1.821609        -0.819786
 H         2.077251         0.085864        -2.244564
 H         3.466329         2.106850        -0.932334
