19
Iteration:   848charge 0 multiplicity 1
 C         0.140300        -0.371954        -0.265599
 C         1.583098        -0.066174        -0.121163
 C         2.189463        -0.962299         0.949824
 O         3.550174        -0.638686         1.238219
 C         4.032274         0.257960         0.234569
 C         3.992263        -0.515603        -1.159147
 C         2.557876         0.096784        -1.343066
 C         3.052462         1.271243        -0.426323
 O         1.819394         1.309347         0.342701
 H        -0.373421         0.228657        -0.987439
 H        -0.061421        -1.413675        -0.320025
 H        -0.218021        -0.114054         0.687981
 H         1.561974        -0.803890         1.862829
 H         2.173975        -2.020392         0.451865
 H         5.041482         0.495793         0.554896
 H         4.604569        -0.043316        -2.023006
 H         4.130698        -1.575590        -1.243811
 H         2.162867         0.349342        -2.452628
 H         3.453106         2.326883        -0.577898
