19
Iteration:   746
 C         0.079121        -0.366068        -0.353818
 C         1.554348        -0.120577        -0.115896
 C         2.289139        -0.961930         0.880303
 O         3.522188        -0.467079         1.276835
 C         4.148052         0.168878         0.175517
 C         3.938657        -0.540555        -1.165361
 C         2.515816         0.161940        -1.337806
 C         3.069826         1.244124        -0.349272
 O         1.845108         1.237315         0.461689
 H        -0.171344        -0.692101        -1.378925
 H        -0.382301        -0.990036         0.273177
 H        -0.221229         0.689955        -0.305859
 H         1.617025        -1.154304         1.838230
 H         2.234562        -2.018147         0.403147
 H         5.143098         0.550536         0.426454
 H         4.450814        -0.019554        -1.908771
 H         3.995820        -1.660878        -1.196770
 H         1.980470         0.387817        -2.434567
 H         3.302239         2.235204        -0.651271
