19
Iteration:   579charge 0 multiplicity 1
 C         0.090687        -0.344536        -0.314774
 C         1.595873        -0.151047        -0.079103
 C         2.147546        -1.058412         0.963244
 O         3.571902        -0.722085         1.177317
 C         4.067325         0.184419         0.201035
 C         3.993781        -0.333874        -1.289523
 C         2.627453         0.252406        -1.319296
 C         3.042671         1.293729        -0.310110
 O         1.805943         1.266299         0.411273
 H        -0.413976         0.265317         0.384984
 H        -0.330921        -0.083751        -1.316411
 H        -0.088045        -1.428406        -0.154107
 H         1.698412        -0.973078         2.098251
 H         2.060041        -2.150958         0.721098
 H         5.017065         0.559776         0.645985
 H         4.562664         0.252345        -2.012021
 H         4.156854        -1.432028        -1.270633
 H         2.085545         0.552757        -2.401584
 H         3.387058         2.293327        -0.654563
