19
Iteration:  4256
 C         0.067314        -0.316340        -0.106739
 C         1.593358        -0.028862        -0.107117
 C         2.138030        -0.395981         1.317505
 O         3.530999         0.057895         1.376144
 C         4.068563         0.195630         0.093066
 C         3.859295        -1.091919        -0.673504
 C         2.609882        -0.479844        -1.259469
 C         3.128103         0.926113        -0.938046
 O         1.909456         1.386152        -0.284635
 H        -0.497041         0.648245        -0.210544
 H        -0.256610        -0.854351        -1.070253
 H        -0.251171        -0.865897         0.755234
 H         1.682092         0.116247         2.131499
 H         2.111023        -1.490403         1.628279
 H         5.049726         0.660302         0.489410
 H         4.625954        -1.028862        -1.393124
 H         3.947459        -2.101140        -0.303188
 H         2.379141        -0.953309        -2.168607
 H         3.551328         1.760991        -1.578240
