19
Iteration:  1574
 C         0.114526        -0.394836        -0.179312
 C         1.616348        -0.052606        -0.108984
 C         2.094513        -0.805528         1.106486
 O         3.501427        -0.479766         1.354645
 C         4.075197         0.229470         0.131665
 C         4.002914        -0.651816        -1.126692
 C         2.623500        -0.049854        -1.347161
 C         3.067753         1.205453        -0.568391
 O         1.855805         1.326384         0.143034
 H        -0.435984         0.525915         0.233496
 H        -0.344928        -0.382519        -1.152213
 H        -0.204877        -1.302080         0.332404
 H         1.566608        -0.381674         1.904038
 H         1.981736        -1.923993         1.161802
 H         5.043991         0.520110         0.602653
 H         4.804795        -0.202567        -1.792667
 H         3.959786        -1.712974        -0.997248
 H         2.160662         0.057150        -2.515298
 H         3.579590         2.176179        -0.961821
