19
Iteration:  2583charge 0 multiplicity 1
 C         0.031768        -0.281769        -0.375913
 C         1.515613        -0.076894        -0.033646
 C         2.192020        -0.782809         1.196656
 O         3.569090        -0.495978         1.226401
 C         4.178621         0.215256         0.099721
 C         4.037247        -0.614450        -1.183240
 C         2.533939        -0.056765        -1.292051
 C         3.044492         1.165298        -0.466699
 O         1.854650         1.254803         0.303842
 H        -0.074849        -0.396922        -1.486777
 H        -0.425117        -1.257300         0.001763
 H        -0.702698         0.501571         0.045859
 H         1.618540        -0.297878         2.015436
 H         1.921999        -1.901936         1.258561
 H         5.120663         0.675952         0.384514
 H         4.688706        -0.167179        -2.034177
 H         4.255660        -1.681110        -1.229601
 H         2.047877         0.082362        -2.282851
 H         3.332389         2.165883        -0.817978
