19
Iteration:  4903charge 0 multiplicity 1
 C         0.052293        -0.333526        -0.248206
 C         1.547969        -0.002033        -0.027942
 C         2.146305         0.103446         1.355487
 O         3.590651         0.607299         1.319705
 C         4.193828         0.161277         0.064337
 C         3.761129        -1.341208        -0.202167
 C         2.581839        -0.799220        -0.918484
 C         3.178494         0.610967        -1.165302
 O         1.892218         1.207210        -0.678428
 H        -0.517677        -0.195695         0.662813
 H        -0.331365         0.403434        -0.949529
 H        -0.294438        -1.350868        -0.687675
 H         1.574560         0.880310         1.919779
 H         2.297500        -0.922523         1.870477
 H         5.278984         0.400823         0.181255
 H         4.344771        -1.919977        -0.867504
 H         3.488380        -1.954325         0.672269
 H         2.089972        -1.402261        -1.621446
 H         3.769965         0.947216        -2.092939
