19
Iteration:  1166charge 0 multiplicity 1
 C         0.074081        -0.281930        -0.301227
 C         1.559322        -0.128040        -0.123045
 C         2.270634        -1.030857         0.899756
 O         3.526250        -0.422793         1.288730
 C         4.073665         0.257272         0.187638
 C         3.980084        -0.596433        -1.211573
 C         2.519073         0.061686        -1.299444
 C         3.027414         1.214234        -0.407200
 O         1.860466         1.267135         0.398456
 H        -0.257532         0.677290         0.066085
 H        -0.211522        -0.424934        -1.447013
 H        -0.252161        -1.040307         0.427438
 H         1.609548        -1.248568         1.857386
 H         2.433139        -2.020307         0.428059
 H         5.072240         0.686923         0.450314
 H         4.657564        -0.112999        -1.913012
 H         4.174608        -1.727375        -1.245078
 H         2.054090         0.180800        -2.185868
 H         3.441537         2.252675        -0.692485
