19
Iteration:    13
 C         0.007959        -0.334760        -0.382895
 C         1.512516        -0.097599        -0.049820
 C         2.302527        -1.188717         0.685879
 O         3.568425        -0.609913         1.199690
 C         4.183026         0.196300         0.107822
 C         3.956438        -0.272745        -1.309962
 C         2.513538         0.353583        -1.317363
 C         3.033206         1.359763        -0.171264
 O         1.832894         1.092443         0.706098
 H        -0.563389        -0.331813         0.492494
 H        -0.346780         0.414671        -1.047242
 H        -0.153131        -1.357555        -0.917524
 H         1.896808        -1.803327         1.517068
 H         2.510423        -1.913047        -0.076460
 H         5.195957         0.449353         0.423399
 H         4.615980         0.098661        -2.063092
 H         3.932735        -1.434078        -1.413099
 H         2.011917         0.262837        -2.295967
 H         3.330371         2.385561        -0.168932
