19
Iteration:  1274charge 0 multiplicity 1
 C         0.090743        -0.305014        -0.422728
 C         1.592865        -0.079947        -0.060944
 C         2.279150        -0.978647         0.940053
 O         3.565618        -0.379411         1.309958
 C         4.125435         0.214516         0.102337
 C         3.854080        -0.711421        -1.113199
 C         2.514960         0.101170        -1.235617
 C         3.003506         1.284919        -0.439167
 O         1.842867         1.250076         0.387185
 H        -0.369753        -0.508812         0.460413
 H        -0.378965         0.627234        -0.779399
 H        -0.085618        -1.016761        -1.169960
 H         1.823341        -1.146785         1.810992
 H         2.533029        -1.947483         0.458506
 H         5.208987         0.450059         0.246224
 H         4.644667        -0.488881        -1.833175
 H         3.985290        -1.780863        -0.739400
 H         2.230339         0.006556        -2.362535
 H         3.303398         2.257837        -0.811703
