19
Iteration:   477
 C        -0.012399        -0.364463        -0.317360
 C         1.536728        -0.099194        -0.105785
 C         2.209917        -1.093305         0.887629
 O         3.601315        -0.739383         1.096603
 C         4.117635         0.220268         0.154859
 C         4.014579        -0.332922        -1.246100
 C         2.652901         0.303317        -1.267573
 C         3.025921         1.304203        -0.255616
 O         1.794737         1.209550         0.508232
 H        -0.229488        -0.279446        -1.385579
 H        -0.318519        -1.321267         0.132528
 H        -0.578269         0.367445         0.118200
 H         1.714314        -0.999547         1.916294
 H         2.199354        -2.121148         0.531537
 H         5.094469         0.549778         0.538487
 H         4.765337         0.103162        -1.897342
 H         4.029078        -1.356792        -1.401414
 H         2.169479         0.574280        -2.326567
 H         3.238894         2.379575        -0.426074
