19
Iteration:   955charge 0 multiplicity 1
 C         0.080563        -0.467151        -0.301873
 C         1.572794        -0.004985        -0.119480
 C         2.217848        -0.852949         1.000059
 O         3.642185        -0.740908         1.194896
 C         4.070852         0.142507         0.194696
 C         4.005483        -0.527728        -1.187710
 C         2.601249         0.217883        -1.315289
 C         3.041155         1.269985        -0.357049
 O         1.719125         1.401761         0.325308
 H        -0.808605        -0.033733        -0.974639
 H         0.023422        -1.554478        -0.446907
 H        -0.272951        -0.315824         0.775452
 H         1.648662        -0.736300         2.045124
 H         2.009885        -1.862751         0.764479
 H         5.051894         0.491230         0.452503
 H         4.686584        -0.095277        -1.879416
 H         4.054242        -1.659786        -1.245433
 H         2.337539         0.332886        -2.354210
 H         3.373255         2.213882        -0.747802
