19
Iteration:  1136charge 0 multiplicity 1
 C         0.099837        -0.338984        -0.443554
 C         1.526218        -0.116376        -0.108186
 C         2.278912        -1.070051         0.983350
 O         3.575892        -0.378406         1.271255
 C         4.107994         0.232929         0.132995
 C         3.821062        -0.664991        -1.184453
 C         2.561926         0.141994        -1.247257
 C         3.017104         1.315837        -0.416575
 O         1.888586         1.244886         0.459330
 H        -0.308147         0.656403        -0.199273
 H        -0.093644        -0.540968        -1.491686
 H        -0.224925        -1.166280         0.231936
 H         1.781563        -1.191175         2.034659
 H         2.479613        -1.986407         0.498658
 H         5.162822         0.473957         0.245580
 H         4.625478        -0.402763        -1.826118
 H         3.763541        -1.677587        -1.209261
 H         2.062076         0.265396        -2.306710
 H         3.325771         2.388474        -0.580210
