19
Iteration:  4867
 C         0.141214        -0.258291        -0.105999
 C         1.609007         0.034545        -0.050161
 C         2.060193         0.053731         1.332844
 O         3.406713         0.569486         1.324475
 C         4.126305         0.163400         0.125759
 C         3.892945        -1.336864        -0.307415
 C         2.581299        -0.841725        -0.957826
 C         3.140957         0.496742        -1.224246
 O         1.986092         1.304051        -0.659712
 H        -0.351918         0.764876        -0.000047
 H        -0.138211        -0.707471        -1.141221
 H        -0.124609        -0.908346         0.816540
 H         1.399663         0.652284         2.029300
 H         2.021419        -0.959283         1.789902
 H         5.161061         0.526727         0.148195
 H         4.575515        -1.658675        -1.108759
 H         3.855773        -2.081805         0.426509
 H         2.095942        -1.581821        -1.619540
 H         3.562457         0.953277        -2.092735
