19
Iteration:  2283charge 0 multiplicity 1
 C         0.133114        -0.389504        -0.269468
 C         1.580569        -0.071390        -0.079682
 C         2.266390        -0.880145         1.060636
 O         3.490061        -0.285537         1.365979
 C         4.080134         0.204255         0.135981
 C         3.793410        -0.818088        -0.999294
 C         2.583803         0.008150        -1.370541
 C         3.097547         1.256933        -0.602969
 O         1.901904         1.368263         0.178931
 H        -0.324600        -0.786586         0.639598
 H        -0.485091         0.473333        -0.559725
 H         0.025875        -1.109711        -0.990732
 H         1.556573        -1.092408         1.911621
 H         2.221569        -1.865514         0.573429
 H         5.186379         0.440473         0.389973
 H         4.683809        -0.730808        -1.663688
 H         3.801194        -1.830993        -0.572310
 H         2.149337        -0.132220        -2.416128
 H         3.457395         2.286726        -0.854020
