19
Iteration:  3126charge 0 multiplicity 1
 C         0.110621        -0.341741        -0.323537
 C         1.581273        -0.075694        -0.029861
 C         2.308503        -0.870863         1.078321
 O         3.591124        -0.294550         1.341394
 C         4.093183         0.162158         0.096813
 C         3.745888        -0.811679        -1.030997
 C         2.564464        -0.003999        -1.268364
 C         3.050887         1.215907        -0.550400
 O         1.843498         1.368872         0.171594
 H        -0.521903         0.543908        -0.010520
 H        -0.062706        -0.290491        -1.450005
 H        -0.217717        -1.326293        -0.052577
 H         1.923143        -0.857661         2.094949
 H         2.399025        -1.824268         0.665824
 H         5.129695         0.363067         0.263640
 H         4.431203        -0.682334        -1.869470
 H         3.709400        -1.859149        -0.680765
 H         2.204781         0.039001        -2.299505
 H         3.555471         2.110353        -0.856418
