19
Iteration:   730charge 0 multiplicity 1
 C         0.070485        -0.336967        -0.290417
 C         1.594964        -0.097558        -0.116742
 C         2.173563        -1.083904         0.948592
 O         3.551746        -0.606220         1.271632
 C         4.086667         0.223774         0.203018
 C         3.959427        -0.493207        -1.247038
 C         2.611905         0.178800        -1.297790
 C         3.021827         1.317294        -0.395434
 O         1.833769         1.285023         0.340973
 H        -0.127564        -0.962744        -1.167093
 H        -0.305948        -0.890400         0.714772
 H        -0.579819         0.542143        -0.373517
 H         1.629695        -0.926923         1.810631
 H         2.329726        -2.101398         0.710080
 H         5.098278         0.536657         0.570235
 H         4.773921         0.017003        -1.881167
 H         4.118292        -1.565350        -1.270667
 H         2.134306         0.368933        -2.206449
 H         3.496130         2.303171        -0.683576
