19
Iteration:  2050charge 0 multiplicity 1
 C         0.120742        -0.391435        -0.256675
 C         1.590579        -0.069300        -0.106288
 C         2.165147        -0.759279         1.019148
 O         3.501708        -0.386086         1.313856
 C         4.109568         0.225341         0.176857
 C         3.915145        -0.755690        -1.082805
 C         2.639302        -0.054813        -1.281258
 C         3.085339         1.150533        -0.554551
 O         1.825268         1.409178         0.176111
 H        -0.415173        -0.345115         0.727475
 H        -0.402359         0.304692        -0.873434
 H        -0.083884        -1.467664        -0.523337
 H         1.660830        -0.676567         2.046179
 H         2.201834        -1.830654         0.996518
 H         5.119413         0.615294         0.557074
 H         4.430883        -0.555509        -2.058975
 H         4.078329        -1.912243        -0.705528
 H         2.144180        -0.007435        -2.310317
 H         3.487337         2.055300        -0.999350
