19
Iteration:  2250
 C         0.098836        -0.425005        -0.350560
 C         1.600150        -0.059697        -0.077473
 C         2.174703        -0.771059         1.118175
 O         3.517008        -0.282255         1.380422
 C         4.188970         0.160480         0.095058
 C         3.820452        -0.768822        -1.101593
 C         2.555108        -0.010059        -1.347827
 C         3.078127         1.179602        -0.551195
 O         1.878156         1.335537         0.247974
 H        -0.540747        -0.177010         0.483160
 H        -0.316389         0.082459        -1.237663
 H         0.036436        -1.413622        -0.628668
 H         1.630184        -0.625813         2.097700
 H         2.259279        -1.820893         0.883233
 H         5.270656         0.301624         0.443025
 H         4.595857        -0.592439        -1.871311
 H         3.934659        -1.834133        -0.774019
 H         2.024045         0.136020        -2.332352
 H         3.549570         2.120357        -0.856903
