19
Iteration:  4261
 C         0.119460        -0.312497        -0.133997
 C         1.606229        -0.059027        -0.124140
 C         2.150685        -0.376651         1.302145
 O         3.510638         0.095813         1.386609
 C         4.036869         0.170016         0.124076
 C         3.862799        -1.054794        -0.673140
 C         2.566906        -0.478425        -1.274181
 C         3.142726         0.884267        -0.914300
 O         1.909109         1.379086        -0.265224
 H        -0.317013         0.664905         0.063478
 H        -0.241325        -0.698437        -1.029296
 H        -0.218442        -0.941595         0.737008
 H         1.577790         0.173511         2.147647
 H         2.185056        -1.476329         1.414622
 H         5.021358         0.589196         0.232164
 H         4.775502        -1.104366        -1.420489
 H         3.993605        -2.125486        -0.260084
 H         2.144007        -0.903421        -2.278269
 H         3.498294         1.652015        -1.571367
