19
Iteration:  2238
 C         0.126651        -0.407020        -0.382812
 C         1.575565        -0.064689        -0.038425
 C         2.192678        -0.826266         1.199245
 O         3.565176        -0.373808         1.337776
 C         4.024018         0.153776         0.161760
 C         3.914563        -0.747682        -1.095291
 C         2.547911        -0.031298        -1.311047
 C         3.088471         1.261947        -0.567703
 O         1.910403         1.355635         0.176832
 H        -0.554563         0.023022         0.375023
 H        -0.082016         0.085316        -1.337267
 H        -0.017638        -1.412875        -0.325920
 H         1.579760        -0.384530         2.087398
 H         2.052456        -1.909731         1.229240
 H         5.073970         0.572644         0.261123
 H         4.511471        -0.365548        -1.901825
 H         3.835690        -1.856104        -1.239682
 H         1.959714        -0.052549        -2.285063
 H         3.362227         2.213996        -1.009131
