19
Iteration:  2871charge 0 multiplicity 1
 C         0.085158        -0.388006        -0.218190
 C         1.602108        -0.081780        -0.109400
 C         2.232382        -0.926893         1.000644
 O         3.527389        -0.370761         1.303244
 C         4.118471         0.150079         0.121962
 C         3.879477        -0.764106        -0.985302
 C         2.572889         0.076371        -1.386122
 C         3.070789         1.317385        -0.565004
 O         1.842056         1.393030         0.241519
 H        -0.133035        -0.427917        -1.270373
 H        -0.211639        -1.376936         0.246199
 H        -0.630797         0.307793         0.345465
 H         1.795856        -1.108410         2.000386
 H         2.434162        -2.010328         0.525417
 H         5.158473         0.586062         0.312894
 H         4.650162        -0.645344        -1.724049
 H         3.486327        -1.770631        -0.701331
 H         2.095493        -0.027739        -2.336674
 H         3.671432         2.217458        -0.746048
