19
Iteration:  2576
 C         0.039255        -0.322130        -0.380907
 C         1.478171        -0.103992        -0.072401
 C         2.123040        -0.769333         1.202528
 O         3.634255        -0.479122         1.219412
 C         4.061540         0.215580         0.116815
 C         4.037381        -0.591337        -1.191721
 C         2.543133        -0.024865        -1.312643
 C         3.024240         1.149313        -0.456171
 O         1.918287         1.263860         0.326079
 H        -0.147075        -0.168061        -1.469213
 H        -0.450644        -1.257503        -0.088015
 H        -0.525056         0.451042         0.008640
 H         1.917736        -0.208852         2.109973
 H         2.075918        -1.873216         1.289598
 H         5.083279         0.457645         0.363125
 H         4.653975        -0.228526        -2.018455
 H         4.297048        -1.701434        -1.021735
 H         2.129609        -0.074237        -2.283123
 H         3.408076         2.089616        -0.809451
