19
Iteration:  1198charge 0 multiplicity 1
 C         0.056038        -0.415415        -0.229293
 C         1.584477        -0.081413        -0.076416
 C         2.188552        -0.920840         0.973618
 O         3.616520        -0.671723         1.205046
 C         4.079211         0.234874         0.220429
 C         4.083626        -0.587561        -1.147597
 C         2.501065         0.175889        -1.340152
 C         3.031421         1.306912        -0.413270
 O         1.797579         1.374987         0.252349
 H        -0.450551         0.370040         0.268162
 H        -0.389137        -0.621491        -1.326828
 H        -0.175604        -1.283493         0.392413
 H         1.579632        -0.804243         1.891124
 H         2.092375        -2.000088         0.670971
 H         5.074751         0.588899         0.625367
 H         4.791072        -0.267785        -1.926464
 H         3.936547        -1.750188        -1.101752
 H         2.080129         0.338713        -2.341572
 H         3.507940         2.312221        -0.646659
