19
Iteration:  3072charge 0 multiplicity 1
 C         0.089072        -0.382902        -0.169735
 C         1.601108        -0.129134        -0.135301
 C         2.100886        -0.804741         1.176047
 O         3.501917        -0.418653         1.321935
 C         4.139550         0.204113         0.166517
 C         4.011033        -0.695079        -1.186175
 C         2.542089        -0.037048        -1.331323
 C         3.134857         1.175482        -0.609532
 O         1.841516         1.385242         0.163557
 H        -0.411023         0.621980         0.047610
 H        -0.399368        -0.703133        -1.132135
 H        -0.329883        -0.996038         0.601822
 H         1.661134        -0.322270         2.081766
 H         1.882534        -1.919471         1.189494
 H         5.056974         0.379110         0.632304
 H         4.672198        -0.317493        -1.960328
 H         4.266491        -1.743157        -1.288393
 H         1.993060         0.190388        -2.262089
 H         3.654173         2.061847        -0.935885
