19
Iteration:  2089
 C         0.138291        -0.383999        -0.346012
 C         1.546301        -0.081891        -0.023729
 C         2.188832        -0.707299         1.304912
 O         3.552863        -0.498996         1.308728
 C         4.063488         0.222240         0.135457
 C         3.991717        -0.724447        -1.191192
 C         2.596642        -0.100570        -1.278390
 C         3.063785         1.211490        -0.551820
 O         1.798393         1.361038         0.131816
 H        -0.455124        -0.538152         0.552766
 H        -0.170942         0.638699        -0.719373
 H         0.139752        -1.071456        -1.238035
 H         1.547676        -0.163665         2.009210
 H         1.779349        -1.784932         1.350981
 H         5.005831         0.628114         0.397668
 H         4.778389        -0.365583        -1.867513
 H         4.068173        -1.732397        -1.045102
 H         2.158091        -0.022081        -2.241448
 H         3.422906         2.073534        -1.164594
