19
Iteration:  1505
 C         0.198580        -0.320704        -0.413416
 C         1.608758        -0.145467        -0.047067
 C         2.218445        -0.894598         1.069164
 O         3.505730        -0.250327         1.340861
 C         4.069848         0.161706         0.097468
 C         3.834936        -0.765821        -1.124120
 C         2.579520         0.029131        -1.340664
 C         3.084568         1.244862        -0.503089
 O         1.857030         1.309524         0.369313
 H        -0.079914         0.114040        -1.302353
 H        -0.019094        -1.408020        -0.603769
 H        -0.559968        -0.127506         0.379330
 H         1.645125        -0.672385         1.904673
 H         2.328536        -2.014005         0.999106
 H         5.122291         0.498496         0.174887
 H         4.577359        -0.634285        -1.952010
 H         3.738567        -1.840626        -0.840046
 H         1.971797        -0.006910        -2.307495
 H         3.300072         2.130132        -0.992384
