19
Iteration:  2335charge 0 multiplicity 1
 C         0.004007        -0.315486        -0.317761
 C         1.558608        -0.073095        -0.044300
 C         2.138407        -0.787829         1.235551
 O         3.579774        -0.434709         1.249905
 C         4.186030         0.238094         0.178162
 C         4.021984        -0.685897        -1.141671
 C         2.617673        -0.116921        -1.282890
 C         3.035721         1.156358        -0.621250
 O         1.841522         1.324430         0.190586
 H        -0.564021        -1.067963         0.349075
 H        -0.489936         0.718064        -0.368894
 H        -0.164739        -0.819654        -1.279732
 H         1.560863        -0.072682         1.892389
 H         1.740128        -1.786043         1.312744
 H         5.172946         0.589097         0.534346
 H         4.648370        -0.369469        -1.880710
 H         4.184074        -1.758054        -0.867432
 H         2.013238        -0.081486        -2.193530
 H         3.378683         2.112784        -0.945872
