19
Iteration:   571charge 0 multiplicity 1
 C         0.049482        -0.347539        -0.346510
 C         1.574740        -0.111158        -0.089957
 C         2.196489        -1.066111         0.962509
 O         3.561742        -0.725707         1.214632
 C         4.121331         0.186265         0.174357
 C         4.068317        -0.344683        -1.319206
 C         2.566080         0.270450        -1.329917
 C         2.975364         1.315571        -0.257053
 O         1.824465         1.263659         0.446499
 H        -0.554410         0.384506         0.295942
 H        -0.143614        -0.332440        -1.386031
 H        -0.260333        -1.469974        -0.007400
 H         1.613553        -0.819399         1.795031
 H         2.069254        -2.072868         0.683435
 H         5.112662         0.557755         0.537517
 H         4.773549        -0.055124        -2.107604
 H         4.087577        -1.527212        -1.395867
 H         2.027657         0.366919        -2.208677
 H         3.437339         2.206259        -0.634630
