19
Iteration:  2790charge 0 multiplicity 1
 C         0.084079        -0.367433        -0.371071
 C         1.574742        -0.015201        -0.096104
 C         2.262149        -0.825919         1.111341
 O         3.616674        -0.368708         1.277755
 C         4.085446         0.231666         0.119474
 C         3.839415        -0.734078        -1.021236
 C         2.504954        -0.080902        -1.275087
 C         3.061504         1.216109        -0.509647
 O         1.883924         1.302521         0.246451
 H        -0.298757         0.619026        -0.702349
 H         0.132195        -0.932107        -1.259720
 H        -0.479719        -0.748289         0.403553
 H         1.787973        -0.645680         2.087080
 H         2.048888        -1.950229         0.784308
 H         5.059758         0.573526         0.291419
 H         4.527698        -0.737242        -1.854811
 H         3.933362        -1.738735        -0.755751
 H         2.002827         0.019197        -2.277199
 H         3.295681         2.197771        -0.918991
