19
Iteration:   315charge 0 multiplicity 1
 C         0.098584        -0.319710        -0.244592
 C         1.601210        -0.094647        -0.107840
 C         2.249960        -1.148711         0.728719
 O         3.560480        -0.798663         1.127623
 C         4.052822         0.280028         0.236054
 C         4.038294        -0.292782        -1.279584
 C         2.569466         0.378340        -1.340865
 C         3.000480         1.297329        -0.243901
 O         1.773460         1.137808         0.569445
 H        -0.351395        -1.085911         0.389145
 H        -0.354679         0.799316        -0.293610
 H        -0.175056        -0.657988        -1.189867
 H         1.693467        -1.086453         1.721605
 H         2.168816        -2.239721         0.305321
 H         4.968343         0.659825         0.515839
 H         4.825623         0.059837        -2.097621
 H         4.184873        -1.371133        -1.225015
 H         2.023086         0.622398        -2.241407
 H         3.306597         2.345899        -0.332173
