19
Iteration:   441charge 0 multiplicity 1
 C         0.107335        -0.328075        -0.310202
 C         1.587210        -0.098588        -0.051149
 C         2.205735        -1.121909         0.795654
 O         3.563226        -0.772358         1.094258
 C         4.126472         0.217120         0.200012
 C         3.965879        -0.282252        -1.229894
 C         2.611314         0.234162        -1.207878
 C         2.984629         1.327618        -0.253501
 O         1.793536         1.238733         0.472068
 H        -0.037593        -1.041109        -1.163647
 H        -0.310644        -0.873277         0.441633
 H        -0.478495         0.668320        -0.324873
 H         1.633356        -1.163815         1.672258
 H         2.118203        -2.222393         0.353017
 H         5.159662         0.622486         0.471237
 H         4.520184         0.334269        -1.910348
 H         4.053420        -1.385004        -1.474235
 H         2.151638         0.608949        -2.109002
 H         3.382705         2.286596        -0.652767
