19
Iteration:  3826
 C         0.041445        -0.322890        -0.239037
 C         1.584807        -0.059827        -0.086242
 C         2.181630        -0.714744         1.250540
 O         3.540384        -0.073763         1.396404
 C         4.182985         0.202450         0.090267
 C         3.829402        -0.905794        -0.920105
 C         2.557494        -0.189133        -1.298906
 C         3.154824         1.103436        -0.748837
 O         1.892023         1.332929         0.012662
 H        -0.290239        -1.179552         0.444077
 H        -0.467920         0.608023        -0.034052
 H        -0.414621        -0.889044        -1.161441
 H         1.583809        -0.486899         2.182834
 H         2.199236        -1.776139         0.891050
 H         5.227383         0.291697         0.221681
 H         4.428285        -1.011959        -1.928514
 H         3.708355        -1.936303        -0.406829
 H         2.164828        -0.361520        -2.337891
 H         3.519772         1.937349        -1.318287
