19
Iteration:  4868charge 0 multiplicity 1
 C         0.139819        -0.255901        -0.115313
 C         1.611415         0.038497        -0.043457
 C         2.066945         0.053338         1.327632
 O         3.405483         0.572225         1.326160
 C         4.121256         0.166055         0.126430
 C         3.895028        -1.336863        -0.311340
 C         2.578468        -0.848414        -0.959185
 C         3.129888         0.498384        -1.221174
 O         1.988014         1.304960        -0.658821
 H        -0.365100         0.727244         0.043516
 H        -0.121842        -0.689242        -1.135033
 H        -0.115436        -0.923272         0.794341
 H         1.387364         0.657759         2.017820
 H         2.062011        -0.964843         1.825820
 H         5.170532         0.487033         0.161845
 H         4.585022        -1.674017        -1.076898
 H         3.853121        -2.083376         0.420922
 H         2.104933        -1.557051        -1.616504
 H         3.593965         0.919224        -2.117020
