19
Iteration:  4723
 C         0.088217        -0.229240        -0.122661
 C         1.547258        -0.043859        -0.062560
 C         2.139199        -0.050645         1.333631
 O         3.508531         0.396033         1.364641
 C         4.105827         0.214113         0.112502
 C         3.857556        -1.228415        -0.360730
 C         2.563201        -0.898052        -1.037585
 C         3.150068         0.672372        -1.091855
 O         1.939450         1.320604        -0.674657
 H        -0.113575        -0.959189         0.765156
 H        -0.427277         0.792818        -0.069175
 H        -0.129298        -0.614332        -1.136364
 H         1.670951         0.688853         2.059610
 H         2.048297        -1.044431         1.939547
 H         5.116595         0.610298         0.379773
 H         4.565538        -1.313654        -1.199196
 H         3.934280        -1.918716         0.390090
 H         2.043662        -1.438959        -1.920235
 H         3.670777         1.201212        -1.858383
