19
Iteration:  2738charge 0 multiplicity 1
 C         0.088056        -0.395130        -0.217379
 C         1.604565        -0.051918        -0.147511
 C         2.202374        -0.900061         1.052149
 O         3.510314        -0.351512         1.341622
 C         4.087093         0.166106         0.156725
 C         3.863762        -0.718954        -1.081022
 C         2.602248         0.020343        -1.386650
 C         3.090062         1.202388        -0.552425
 O         1.873989         1.349629         0.252585
 H        -0.523733         0.364861        -0.829419
 H        -0.052991        -1.520632        -0.525212
 H        -0.194584        -0.141519         0.809104
 H         1.659445        -0.450920         1.851275
 H         2.057396        -1.935601         0.923489
 H         5.100831         0.432677         0.311934
 H         4.620203        -0.170530        -1.714842
 H         4.101220        -1.820826        -1.242641
 H         2.102819        -0.028443        -2.333205
 H         3.485433         2.116575        -0.969914
