19
Iteration:  2814charge 0 multiplicity 1
 C         0.104774        -0.311156        -0.344965
 C         1.603415        -0.203769        -0.111202
 C         2.150574        -0.788931         1.315010
 O         3.582095        -0.455322         1.263183
 C         4.085671         0.168511         0.124045
 C         4.004478        -0.709344        -1.193935
 C         2.596830        -0.066232        -1.266903
 C         2.966446         1.225206        -0.583943
 O         1.832145         1.421691         0.267881
 H        -0.178913         0.609102        -0.907707
 H         0.049644        -1.150685        -1.099446
 H        -0.425387        -0.478396         0.545044
 H         1.658607        -0.276796         2.142102
 H         1.955438        -1.923183         1.416162
 H         5.009307         0.615257         0.433762
 H         4.661677        -0.378750        -1.991548
 H         4.158591        -1.763579        -1.315431
 H         2.060121         0.053478        -2.211888
 H         3.241212         2.144294        -1.089255
