19
Iteration:   753
 C         0.110041        -0.348510        -0.410317
 C         1.565320        -0.086481        -0.103658
 C         2.261204        -1.004260         0.869685
 O         3.521988        -0.420483         1.260925
 C         4.157200         0.180330         0.136703
 C         3.860285        -0.572820        -1.184759
 C         2.540281         0.147737        -1.321237
 C         3.019251         1.211186        -0.323370
 O         1.849039         1.237976         0.503922
 H        -0.062738        -0.585014        -1.438048
 H        -0.455528        -1.054606         0.364992
 H        -0.447103         0.627562        -0.237078
 H         1.732337        -1.106432         1.805499
 H         2.589880        -1.935423         0.447286
 H         5.184126         0.604765         0.385297
 H         4.684497        -0.140790        -1.850539
 H         4.073698        -1.628113        -1.067978
 H         2.093321         0.288879        -2.331975
 H         3.467156         2.206166        -0.588946
