19
Iteration:  4661
 C         0.142241        -0.351558        -0.200332
 C         1.628998        -0.045626        -0.051521
 C         2.163530        -0.070012         1.332230
 O         3.536279         0.451838         1.424410
 C         4.126837         0.276893         0.136993
 C         3.745611        -1.351680        -0.434144
 C         2.543466        -0.713550        -1.053078
 C         3.189048         0.723143        -1.128756
 O         1.883681         1.301948        -0.550237
 H        -0.333976         0.468670         0.184680
 H        -0.207230        -0.339297        -1.239716
 H        -0.203769        -1.211292         0.291943
 H         1.547939         0.593077         1.975036
 H         2.075372        -1.027026         1.702429
 H         5.134532         0.625393         0.038620
 H         4.443915        -1.953542        -1.066406
 H         3.507036        -2.121551         0.397591
 H         1.986296        -1.061858        -1.854771
 H         3.821178         1.068262        -1.984284
