19
Iteration:  2047
 C         0.129936        -0.383154        -0.253303
 C         1.601300        -0.074585        -0.099064
 C         2.175178        -0.780895         1.021231
 O         3.499162        -0.353480         1.299059
 C         4.115648         0.228701         0.187542
 C         3.907020        -0.769874        -1.067048
 C         2.635763        -0.043283        -1.307032
 C         3.085352         1.146464        -0.550929
 O         1.826188         1.399003         0.178974
 H        -0.318404        -0.245182         0.721703
 H        -0.410909         0.304695        -0.912124
 H         0.029721        -1.500956        -0.503709
 H         1.541150        -0.749093         2.099756
 H         2.152767        -1.894036         0.854003
 H         5.025204         0.577329         0.569998
 H         4.350635        -0.641010        -2.049026
 H         3.956959        -1.819303        -0.735225
 H         2.150603        -0.036377        -2.251073
 H         3.479050         2.089934        -0.950745
