19
Iteration:  2210
 C         0.139183        -0.322463        -0.332354
 C         1.539340        -0.031797        -0.020302
 C         2.159510        -0.732632         1.172419
 O         3.600418        -0.538368         1.242386
 C         4.136217         0.223772         0.158417
 C         4.087825        -0.675857        -1.050796
 C         2.529810        -0.157487        -1.285979
 C         3.018715         1.186811        -0.505926
 O         1.784372         1.371890         0.145304
 H        -0.371913         0.494295         0.196900
 H        -0.140028        -0.087866        -1.396235
 H        -0.322862        -1.385323         0.000541
 H         1.635033        -0.371506         2.011736
 H         1.806120        -1.801117         1.112146
 H         5.103778         0.660692         0.306543
 H         4.484786        -0.407820        -2.099720
 H         4.109107        -1.722997        -0.965284
 H         2.030837        -0.068191        -2.253577
 H         3.150235         2.151334        -1.067334
