19
Iteration:  1206
 C         0.068357        -0.464537        -0.249791
 C         1.573092        -0.048278        -0.140570
 C         2.178723        -0.877295         1.011145
 O         3.624463        -0.671453         1.207511
 C         4.073679         0.217602         0.170339
 C         4.009383        -0.566569        -1.139750
 C         2.581816         0.137110        -1.331935
 C         3.068559         1.241423        -0.355064
 O         1.788553         1.413440         0.292200
 H        -0.558947         0.293808         0.200291
 H        -0.450062        -0.596110        -1.163674
 H        -0.129431        -1.408643         0.213590
 H         1.685679        -0.638460         1.863487
 H         2.073429        -1.938251         0.656939
 H         4.960677         0.724524         0.589350
 H         4.623117        -0.253743        -2.030428
 H         4.083265        -1.720244        -1.120926
 H         1.936233         0.554283        -2.383782
 H         3.492213         2.120482        -0.718383
