19
Iteration:   404charge 0 multiplicity 1
 C         0.183117        -0.374438        -0.475586
 C         1.614901        -0.072746        -0.100577
 C         2.289543        -1.100068         0.743215
 O         3.588387        -0.564876         1.226354
 C         4.070378         0.199375         0.155365
 C         3.752341        -0.455944        -1.290238
 C         2.561107         0.405587        -1.286591
 C         2.982318         1.281581        -0.188906
 O         1.869056         1.138230         0.658879
 H         0.057590        -1.422268        -0.697493
 H        -0.410322        -0.161775         0.543951
 H        -0.239727         0.109540        -1.365635
 H         1.734812        -1.290992         1.702206
 H         2.384228        -2.053610         0.090327
 H         5.067958         0.341373         0.493859
 H         4.564096        -0.130956        -2.040223
 H         3.679342        -1.556619        -1.425108
 H         2.049998         0.770772        -2.139258
 H         3.313440         2.302749        -0.317581
