19
Iteration:  3090
 C         0.069140        -0.426909        -0.139445
 C         1.521199        -0.021613        -0.078956
 C         2.153416        -0.741152         1.102016
 O         3.495062        -0.441754         1.280599
 C         4.066600         0.118993         0.123029
 C         3.916238        -0.689978        -1.100890
 C         2.682785        -0.003764        -1.369852
 C         3.092173         1.224721        -0.561743
 O         1.926365         1.361324         0.147064
 H        -0.648650         0.326095         0.217868
 H        -0.103869        -0.774330        -1.121401
 H        -0.128353        -1.243318         0.642041
 H         1.519767        -0.525959         1.970666
 H         1.995709        -1.804716         1.002594
 H         5.050967         0.622001         0.471850
 H         4.722868        -0.427111        -1.841228
 H         4.032621        -1.829007        -0.861403
 H         2.215454        -0.027385        -2.326932
 H         3.546445         2.137417        -1.020537
