19
Iteration:  3845charge 0 multiplicity 1
 C         0.048902        -0.293985        -0.261615
 C         1.541778        -0.117632        -0.072347
 C         2.267704        -0.594064         1.194526
 O         3.551387        -0.045442         1.341228
 C         4.075089         0.148529         0.112571
 C         3.922997        -1.005835        -0.987079
 C         2.562120        -0.273234        -1.332902
 C         3.057877         1.097484        -0.671699
 O         1.922362         1.326520         0.115332
 H        -0.465887        -1.097854         0.260570
 H        -0.439048         0.663451        -0.055386
 H        -0.156293        -0.394676        -1.341668
 H         1.475691        -0.197091         1.884717
 H         2.217014        -1.781747         1.436235
 H         4.982006         0.671627         0.320152
 H         4.740919        -0.704155        -1.784248
 H         3.888558        -2.036317        -0.596193
 H         1.944172        -0.314421        -2.230873
 H         3.484219         1.853064        -1.305405
