19
Iteration:  4067
 C         0.225438        -0.342785        -0.256110
 C         1.601748         0.001205        -0.022739
 C         2.223995        -0.532329         1.280469
 O         3.548286        -0.028027         1.342165
 C         4.102639         0.140249         0.142444
 C         3.807493        -1.094805        -0.802854
 C         2.520226        -0.283461        -1.227404
 C         3.041600         1.065455        -0.899198
 O         1.863069         1.413318        -0.098606
 H        -0.327110         0.004706         0.640173
 H        -0.146152         0.068076        -1.209610
 H         0.083355        -1.501068        -0.373836
 H         1.570420        -0.203537         2.113048
 H         2.184974        -1.668761         1.182504
 H         5.098389         0.435852         0.397703
 H         4.574992        -1.407929        -1.589425
 H         3.753743        -2.074593        -0.247688
 H         1.959692        -0.411659        -2.160250
 H         3.353303         1.858742        -1.561954
