19
Iteration:  3866
 C         0.173313        -0.264293        -0.298838
 C         1.544282        -0.076507         0.010479
 C         2.120913        -0.653903         1.304693
 O         3.578917        -0.174317         1.370885
 C         4.145447         0.216302         0.052294
 C         3.884098        -0.920442        -0.967024
 C         2.566734        -0.318492        -1.256873
 C         3.034684         1.083497        -0.778352
 O         1.876677         1.372333         0.000493
 H        -0.129233        -1.201537         0.108456
 H        -0.391710         0.479561         0.275736
 H        -0.053059        -0.032643        -1.317191
 H         1.603747        -0.334384         2.238040
 H         2.039616        -1.773863         1.428939
 H         5.119305         0.678293         0.252375
 H         4.509185        -0.649596        -1.854428
 H         3.930273        -1.941503        -0.634833
 H         2.057361        -0.451241        -2.204463
 H         3.357399         1.957293        -1.364595
