19
Iteration:  2954charge 0 multiplicity 1
 C         0.130255        -0.336870        -0.242563
 C         1.575068        -0.063556        -0.065460
 C         2.209283        -0.817456         1.124138
 O         3.573162        -0.606530         1.218111
 C         4.089100         0.218806         0.112987
 C         3.943935        -0.663932        -1.059054
 C         2.600669        -0.100147        -1.301884
 C         2.998606         1.224727        -0.503044
 O         1.763760         1.488974         0.169746
 H        -0.426845         0.187276        -1.067729
 H         0.112896        -1.448778        -0.397788
 H        -0.405100        -0.111409         0.646669
 H         1.868328        -0.280753         2.029901
 H         2.028117        -1.814994         1.237598
 H         5.075337         0.560893         0.278999
 H         4.709535        -0.464853        -1.842677
 H         4.266370        -1.674245        -0.916549
 H         2.155200         0.038170        -2.342393
 H         3.619944         2.036511        -0.944544
