19
Iteration:  4132charge 0 multiplicity 1
 C         0.122356        -0.289788        -0.140621
 C         1.622251        -0.065864        -0.023832
 C         2.143801        -0.512265         1.318151
 O         3.490490        -0.067905         1.382166
 C         4.017762         0.226297         0.087712
 C         3.967133        -1.065373        -0.814302
 C         2.549291        -0.423875        -1.225723
 C         3.127785         1.039514        -0.859635
 O         1.897734         1.422148        -0.284987
 H        -0.142806        -1.363495         0.165064
 H        -0.399194         0.434198         0.531506
 H        -0.293541        -0.020749        -1.256865
 H         1.812747        -0.100031         2.282366
 H         2.225177        -1.659764         1.490297
 H         4.951723         0.697137         0.264291
 H         4.559679        -1.070892        -1.776854
 H         3.891120        -1.976646        -0.211101
 H         1.931490        -0.657237        -2.119582
 H         3.611794         1.844991        -1.369953
