19
Iteration:    47
 C         0.196505        -0.268231        -0.314150
 C         1.628611        -0.167693        -0.116008
 C         2.312140        -1.248058         0.692942
 O         3.585459        -0.709194         1.125457
 C         4.067443         0.252648         0.168432
 C         3.885193        -0.250547        -1.256067
 C         2.502169         0.356484        -1.313107
 C         2.980838         1.348500        -0.190337
 O         1.772514         1.125708         0.628510
 H        -0.225506         0.025630         0.613458
 H        -0.109813         0.421093        -0.972611
 H        -0.195378        -1.330524        -0.600765
 H         1.699263        -1.520602         1.591524
 H         2.444074        -2.101220         0.078533
 H         5.009374         0.599264         0.617183
 H         4.581761         0.180952        -1.940596
 H         3.908821        -1.402506        -1.315383
 H         1.882274         0.511509        -2.227423
 H         3.365172         2.348847        -0.285872
