19
Iteration:  3036
 C         0.069250        -0.290460        -0.408580
 C         1.509641        -0.103072        -0.031468
 C         2.293940        -0.941916         1.138058
 O         3.604703        -0.349931         1.291052
 C         4.119116         0.235867         0.123478
 C         3.861461        -0.820747        -1.037976
 C         2.506737        -0.044650        -1.289583
 C         3.083415         1.259038        -0.618530
 O         1.844776         1.370281         0.268154
 H        -0.274859         0.745029        -0.292510
 H        -0.055973        -0.588621        -1.416902
 H        -0.413285        -1.012205         0.315805
 H         1.759331        -0.816935         2.081820
 H         2.341829        -1.995146         0.911135
 H         5.095430         0.746238         0.330880
 H         4.450810        -0.549451        -1.894495
 H         3.975130        -1.802018        -0.499410
 H         1.988886        -0.010294        -2.229921
 H         3.581408         2.118289        -1.084058
