19
Iteration:   193
 C         0.205070        -0.317468        -0.264053
 C         1.617439        -0.123924        -0.158276
 C         2.233965        -1.220367         0.734189
 O         3.536666        -0.805641         1.082110
 C         4.133936         0.223490         0.236003
 C         3.936185        -0.187733        -1.203017
 C         2.531468         0.303531        -1.253632
 C         2.970016         1.351583        -0.240368
 O         1.772094         1.186578         0.549577
 H        -0.139777        -0.195967         0.851754
 H        -0.310807         0.518081        -0.935999
 H        -0.170348        -1.310134        -0.461738
 H         1.536006        -1.438600         1.607932
 H         2.229340        -2.080192         0.022726
 H         5.124628         0.458305         0.633405
 H         4.549748         0.535500        -1.946385
 H         4.306533        -1.212762        -1.554062
 H         2.150011         0.534609        -2.297574
 H         3.208322         2.416733        -0.555673
