19
Iteration:  4760
 C         0.073390        -0.318856        -0.137032
 C         1.569303        -0.038883        -0.057712
 C         2.179380        -0.015443         1.357649
 O         3.501002         0.505636         1.274759
 C         4.163626         0.196456         0.130350
 C         3.781586        -1.290148        -0.329872
 C         2.513160        -0.792047        -1.061492
 C         3.216346         0.649793        -1.037521
 O         1.935334         1.303120        -0.625711
 H        -0.063989        -1.284406        -0.467387
 H        -0.522837        -0.133753         0.728125
 H        -0.309513         0.286689        -0.963370
 H         1.551639         0.738981         1.893548
 H         2.183075        -1.001144         1.819313
 H         5.228614         0.419197         0.189301
 H         4.530800        -1.751542        -1.000498
 H         3.641723        -2.022291         0.548807
 H         2.176286        -1.349661        -1.884749
 H         3.607243         1.180607        -1.978170
