19
Iteration:  2380
 C         0.132820        -0.412249        -0.289024
 C         1.533040         0.009643        -0.097365
 C         2.266004        -0.828828         1.075681
 O         3.521095        -0.266320         1.390360
 C         4.142077         0.126281         0.132941
 C         3.856937        -0.886116        -1.070382
 C         2.591668         0.029250        -1.295877
 C         3.098730         1.242932        -0.551406
 O         1.834576         1.379244         0.190526
 H        -0.315309        -1.128666         0.442660
 H        -0.641310         0.412653        -0.407113
 H         0.032880        -0.987644        -1.176363
 H         1.560981        -0.975536         1.944583
 H         2.417448        -1.850039         0.667314
 H         5.208954         0.467165         0.336217
 H         4.446256        -0.762992        -1.882102
 H         3.588560        -1.939072        -0.967034
 H         2.062055         0.257167        -2.249227
 H         3.459581         2.029036        -1.178315
