19
Iteration:  4735charge 0 multiplicity 1
 C         0.113448        -0.232998        -0.146045
 C         1.636799        -0.030817        -0.065583
 C         2.161945        -0.031415         1.430709
 O         3.504906         0.417839         1.414618
 C         4.046612         0.191725         0.107319
 C         3.869996        -1.287262        -0.355685
 C         2.586691        -0.796995        -1.067054
 C         3.134973         0.712014        -1.166245
 O         1.911976         1.283254        -0.684810
 H        -0.338950        -1.143039         0.338557
 H        -0.365945         0.634404         0.409076
 H        -0.289965        -0.295770        -1.165279
 H         1.453617         0.674534         1.987655
 H         2.096750        -1.122384         1.781493
 H         5.078551         0.554627        -0.004986
 H         4.666312        -1.729236        -0.963916
 H         3.704573        -2.016123         0.361708
 H         2.120665        -1.616025        -1.657974
 H         3.566653         1.261314        -1.970548
