19
Iteration:  2015charge 0 multiplicity 1
 C         0.072113        -0.344245        -0.340124
 C         1.598831        -0.120956        -0.086509
 C         2.339523        -0.925020         1.049783
 O         3.502786        -0.214987         1.400441
 C         4.062553         0.201475         0.179618
 C         3.797571        -0.804792        -1.034372
 C         2.606988         0.017179        -1.397881
 C         3.055576         1.190344        -0.599615
 O         1.906574         1.354610         0.276129
 H        -0.383260         0.286103         0.382165
 H        -0.172865        -0.089552        -1.372931
 H        -0.189486        -1.469209        -0.232172
 H         1.495973        -0.950320         1.892646
 H         2.526681        -1.841768         0.566687
 H         5.046915         0.479935         0.424116
 H         4.391436        -0.729329        -1.945342
 H         3.719488        -1.933754        -0.771397
 H         2.111746         0.008695        -2.353309
 H         3.471280         2.135017        -0.985892
