19
Iteration:  3476charge 0 multiplicity 1
 C         0.151573        -0.376682        -0.291988
 C         1.616408        -0.030020        -0.015835
 C         2.179192        -0.689109         1.189459
 O         3.561109        -0.119445         1.381868
 C         4.108698         0.195115         0.078776
 C         3.783888        -0.930565        -0.904999
 C         2.510378        -0.246895        -1.270572
 C         3.073278         1.104573        -0.737690
 O         1.902491         1.411965         0.030937
 H        -0.259237        -0.670432         0.699809
 H        -0.284002         0.592284        -0.770043
 H         0.088811        -1.234405        -0.987259
 H         1.513812        -0.389140         2.037095
 H         2.264448        -1.731210         0.869773
 H         5.112855         0.522337         0.210491
 H         4.637209        -0.949533        -1.652341
 H         3.819207        -2.062510        -0.498128
 H         1.979050        -0.362636        -2.244964
 H         3.592473         1.989122        -1.164852
