19
Iteration:  4234charge 0 multiplicity 1
 C         0.012441        -0.355721        -0.154281
 C         1.554993        -0.035755        -0.035207
 C         2.100693        -0.335669         1.295069
 O         3.557270        -0.011674         1.408770
 C         4.187383         0.183959         0.062525
 C         3.995168        -1.086606        -0.778024
 C         2.538505        -0.394984        -1.155195
 C         3.134577         0.899242        -0.868124
 O         1.864645         1.423520        -0.333182
 H        -0.413809         0.435062        -0.855017
 H        -0.205544        -1.332983        -0.714831
 H        -0.483931        -0.330462         0.786611
 H         1.662835         0.079793         2.186654
 H         2.060477        -1.484104         1.409690
 H         5.235213         0.632310         0.409661
 H         4.690250        -1.539969        -1.421250
 H         3.963082        -1.898758        -0.035306
 H         1.989433        -0.567595        -2.042058
 H         3.432574         1.627144        -1.680325
