19
Iteration:  2073charge 0 multiplicity 1
 C         0.032874        -0.359915        -0.328741
 C         1.568094        -0.078191        -0.012123
 C         2.107329        -0.709364         1.247399
 O         3.612053        -0.472257         1.292434
 C         4.122227         0.154293         0.174203
 C         4.027140        -0.646881        -1.065532
 C         2.600779        -0.046219        -1.380686
 C         3.044630         1.142307        -0.590122
 O         1.833210         1.379351         0.097278
 H        -0.496134        -0.689032         0.635113
 H        -0.534989         0.448287        -0.778108
 H         0.115523        -1.279398        -0.868440
 H         1.608436        -0.360283         2.225709
 H         1.918634        -1.785140         1.273516
 H         5.149310         0.533036         0.599304
 H         4.536199        -0.260947        -1.979136
 H         4.111999        -1.867982        -1.026951
 H         1.950435        -0.151274        -2.333083
 H         3.447066         2.115324        -0.848973
