19
Iteration:  4882
 C         0.104069        -0.255481        -0.192986
 C         1.567858        -0.036354        -0.040003
 C         2.196024         0.059986         1.426040
 O         3.476367         0.616595         1.308387
 C         4.042838         0.157689         0.092226
 C         3.834573        -1.325412        -0.270707
 C         2.519128        -0.902869        -0.977457
 C         3.131662         0.576428        -1.106686
 O         2.033241         1.274925        -0.715388
 H        -0.584302         0.363931         0.313870
 H        -0.196514        -0.260922        -1.207480
 H        -0.036546        -1.312978         0.088440
 H         1.631153         0.830019         1.987278
 H         2.154110        -1.008028         1.898593
 H         5.067341         0.558841         0.233809
 H         4.645555        -1.544150        -0.950207
 H         3.784430        -2.046966         0.588667
 H         2.011845        -1.276997        -1.823273
 H         3.582097         0.858988        -2.142231
