19
Iteration:  2278charge 0 multiplicity 1
 C         0.112088        -0.418783        -0.277397
 C         1.636904        -0.025110        -0.093784
 C         2.262043        -0.878807         1.016418
 O         3.487712        -0.249584         1.334636
 C         4.096337         0.226237         0.135041
 C         3.776351        -0.893137        -0.981818
 C         2.617735        -0.002652        -1.359652
 C         3.063062         1.247294        -0.575232
 O         1.896144         1.378922         0.213868
 H        -0.389926        -0.609773         0.729735
 H        -0.593726         0.364846        -0.634373
 H        -0.063520        -1.222275        -1.136813
 H         1.630812        -1.044247         1.948777
 H         2.330515        -1.966057         0.613081
 H         5.093721         0.418277         0.375922
 H         4.605027        -0.705714        -1.669254
 H         3.803834        -1.940437        -0.651235
 H         2.076860         0.082634        -2.292194
 H         3.555405         2.192558        -0.750560
