19
Iteration:  2235
 C         0.151272        -0.379104        -0.373562
 C         1.562016        -0.090297        -0.037900
 C         2.200029        -0.821588         1.209965
 O         3.577309        -0.396892         1.328152
 C         4.003639         0.160480         0.169790
 C         3.924887        -0.745411        -1.122070
 C         2.542472        -0.027429        -1.289247
 C         3.091717         1.256935        -0.578573
 O         1.899277         1.374906         0.174230
 H        -0.564805         0.140986         0.336334
 H        -0.109188         0.004994        -1.374916
 H        -0.012402        -1.530691        -0.361392
 H         1.571234        -0.379965         2.069911
 H         1.982156        -1.939545         1.285010
 H         4.949483         0.608020         0.305973
 H         4.564231        -0.332148        -1.836054
 H         3.852874        -1.828612        -1.223544
 H         2.045523        -0.137986        -2.258087
 H         3.352403         2.192521        -1.046330
