19
Iteration:  1626
 C         0.153940        -0.316629        -0.370228
 C         1.551439        -0.106891        -0.066741
 C         2.266363        -0.899072         1.072681
 O         3.564478        -0.265257         1.380457
 C         4.105228         0.241923         0.133934
 C         3.856310        -0.822285        -1.046005
 C         2.512511        -0.050554        -1.273857
 C         3.008873         1.202686        -0.589797
 O         1.862620         1.388441         0.223149
 H        -0.610286        -0.476818         0.421870
 H        -0.274819         0.577913        -0.864058
 H         0.015841        -1.141163        -1.177011
 H         1.813122        -1.043822         2.084184
 H         2.536752        -1.952305         0.771834
 H         5.159125         0.482220         0.514067
 H         4.706174        -0.711163        -1.861824
 H         3.823690        -1.908706        -0.791616
 H         2.030851        -0.096790        -2.235668
 H         3.471204         2.007994        -1.160562
