19
Iteration:  2055charge 0 multiplicity 1
 C         0.089909        -0.417436        -0.248391
 C         1.548641        -0.048204        -0.123086
 C         2.161595        -0.746539         1.058011
 O         3.523068        -0.439165         1.337029
 C         4.117533         0.215343         0.158518
 C         3.967669        -0.759207        -1.097782
 C         2.593331        -0.080692        -1.258575
 C         3.084547         1.189164        -0.550085
 O         1.832739         1.417570         0.160983
 H        -0.490411        -0.470598         0.691852
 H        -0.411132         0.344332        -0.919314
 H        -0.239300        -1.353917        -0.676789
 H         1.730052        -0.348712         1.983393
 H         2.208270        -1.882092         1.089586
 H         5.105272         0.610095         0.411985
 H         4.679298        -0.429255        -1.891513
 H         4.191874        -1.726777        -0.860491
 H         2.207953         0.031829        -2.257678
 H         3.527796         2.030238        -1.130589
