19
Iteration:  2225charge 0 multiplicity 1
 C         0.174247        -0.322671        -0.358648
 C         1.622115        -0.133878        -0.039221
 C         2.159200        -0.764332         1.220008
 O         3.567027        -0.499296         1.322977
 C         4.077688         0.220921         0.126184
 C         3.919522        -0.691960        -1.174471
 C         2.571773        -0.067107        -1.279310
 C         3.007733         1.158954        -0.598579
 O         1.805011         1.440602         0.199187
 H        -0.508532         0.309152         0.260555
 H        -0.018246        -0.187135        -1.425632
 H        -0.092614        -1.401352        -0.246131
 H         1.692017        -0.299285         2.203791
 H         2.103779        -1.895935         1.192634
 H         4.987761         0.599893         0.579206
 H         4.655073        -0.374554        -1.799797
 H         4.156457        -1.738381        -0.888579
 H         2.062731        -0.125627        -2.258262
 H         3.582354         1.941289        -1.052534
