19
Iteration:   339charge 0 multiplicity 1
 C         0.083464        -0.375835        -0.273075
 C         1.547260        -0.116070        -0.108957
 C         2.163491        -1.192609         0.828577
 O         3.562983        -0.772160         1.060105
 C         4.115107         0.196668         0.207804
 C         4.007466        -0.240126        -1.260255
 C         2.611351         0.305463        -1.281465
 C         2.997871         1.322007        -0.183877
 O         1.816900         1.278653         0.511639
 H        -0.165693        -1.268816         0.229007
 H        -0.493514         0.591948        -0.017130
 H        -0.298906        -0.559889        -1.330631
 H         1.772972        -1.233574         1.823574
 H         2.197244        -2.282224         0.397991
 H         5.148728         0.473359         0.385202
 H         4.655406         0.487570        -1.924335
 H         4.348072        -1.255386        -1.592573
 H         2.156454         0.472295        -2.184969
 H         3.250195         2.351789        -0.398598
