19
Iteration:  2622charge 0 multiplicity 1
 C         0.089444        -0.357172        -0.212951
 C         1.616407        -0.029929        -0.074622
 C         2.269469        -0.942566         0.943214
 O         3.540452        -0.463883         1.362093
 C         4.041232         0.236907         0.143545
 C         3.848467        -0.731780        -1.053157
 C         2.547608         0.073175        -1.404328
 C         3.089321         1.216138        -0.524382
 O         1.843242         1.392585         0.228319
 H        -0.073559        -0.694066        -1.200872
 H        -0.052865        -1.210959         0.390903
 H        -0.635615         0.454830        -0.047975
 H         1.836378        -0.949256         1.967636
 H         2.515026        -1.910853         0.483626
 H         5.064637         0.591239         0.576881
 H         4.638039        -0.544496        -1.747121
 H         3.894319        -1.815918        -0.813729
 H         2.021385         0.146191        -2.406225
 H         3.589461         2.188687        -0.784074
