19
Iteration:  1375charge 0 multiplicity 1
 C         0.164038        -0.423693        -0.472746
 C         1.647513        -0.090721        -0.082465
 C         2.258671        -0.854573         1.045627
 O         3.552252        -0.394139         1.338909
 C         4.102559         0.176496         0.114724
 C         3.814645        -0.739346        -1.084696
 C         2.531689         0.039304        -1.255029
 C         2.992098         1.278371        -0.539876
 O         1.877788         1.378528         0.402418
 H         0.091532        -0.945006        -1.367316
 H        -0.491819        -0.859967         0.272388
 H        -0.261937         0.522245        -0.856591
 H         1.733598        -0.830920         1.966553
 H         2.363858        -1.970106         0.826618
 H         5.134283         0.512613         0.200610
 H         4.498933        -0.772425        -1.948373
 H         3.659688        -1.785542        -0.816818
 H         1.834624         0.150561        -2.200521
 H         3.388347         2.290615        -0.959348
