19
Iteration:   802charge 0 multiplicity 1
 C         0.114353        -0.393071        -0.382448
 C         1.590079        -0.050015        -0.121677
 C         2.217811        -0.966033         0.963146
 O         3.598580        -0.583589         1.259882
 C         4.097318         0.176648         0.173923
 C         3.915692        -0.575973        -1.222215
 C         2.563440         0.181953        -1.298769
 C         3.048741         1.276152        -0.302904
 O         1.782977         1.307198         0.404345
 H        -0.077397        -0.412293        -1.482526
 H        -0.055451        -1.298147         0.039985
 H        -0.622657         0.247666         0.055664
 H         1.740674        -0.681319         1.970343
 H         2.267647        -2.062996         0.714580
 H         5.033195         0.693069         0.304093
 H         4.529138        -0.115958        -1.949524
 H         4.066537        -1.679394        -1.307679
 H         1.976901         0.385165        -2.386090
 H         3.430530         2.232000        -0.613030
