19
Iteration:  2887charge 0 multiplicity 1
 C         0.132969        -0.341019        -0.274056
 C         1.576058        -0.042386        -0.115149
 C         2.303601        -0.990299         0.964481
 O         3.522718        -0.257742         1.425509
 C         4.077754         0.241312         0.171802
 C         3.767750        -0.787508        -1.145682
 C         2.551429         0.046017        -1.340963
 C         3.100710         1.186530        -0.528938
 O         1.899837         1.297537         0.263590
 H        -0.205171        -0.456512        -1.344466
 H        -0.084417        -1.209841         0.342871
 H        -0.396393         0.484314         0.197117
 H         1.561605        -0.966885         1.758379
 H         2.465007        -1.925634         0.609293
 H         5.083181         0.464045         0.411373
 H         4.565375        -0.720088        -1.942763
 H         3.809310        -1.826764        -0.865407
 H         2.099028         0.257415        -2.358872
 H         3.183628         2.204707        -0.932260
