19
Iteration:  4356charge 0 multiplicity 1
 C         0.055120        -0.340624        -0.144739
 C         1.552960        -0.090998        -0.029109
 C         2.118736        -0.226947         1.327359
 O         3.533118         0.150552         1.453627
 C         4.117994         0.184609         0.121030
 C         3.912231        -1.161044        -0.736251
 C         2.568123        -0.552921        -1.241557
 C         3.155298         0.860005        -0.891466
 O         1.902718         1.388526        -0.381269
 H        -0.081224        -1.439880        -0.254898
 H        -0.608819         0.112687         0.673723
 H        -0.257038         0.164351        -1.103745
 H         1.704358         0.469484         2.014449
 H         2.060266        -1.291322         1.670797
 H         5.077834         0.689213         0.390931
 H         4.542683        -1.198286        -1.556824
 H         3.980991        -2.164586        -0.300699
 H         2.068612        -0.713959        -2.187380
 H         3.737923         1.384791        -1.710082
