19
Iteration:   308charge 0 multiplicity 1
 C         0.116476        -0.286785        -0.297214
 C         1.551450        -0.072528        -0.166808
 C         2.216516        -1.150535         0.701030
 O         3.628963        -0.741914         1.135703
 C         4.105264         0.242953         0.199344
 C         3.981484        -0.317565        -1.235394
 C         2.561416         0.318337        -1.340613
 C         2.944622         1.303585        -0.145369
 O         1.803037         1.145900         0.587347
 H        -0.315635        -0.940525         0.460722
 H        -0.431722         0.611986        -0.211712
 H        -0.150804        -0.885436        -1.272312
 H         1.702036        -1.165655         1.604368
 H         2.326928        -2.126108         0.285644
 H         5.127719         0.610236         0.562167
 H         4.664890         0.131085        -1.955648
 H         4.087011        -1.427714        -1.314063
 H         2.083958         0.626038        -2.256831
 H         3.230589         2.326290        -0.369167
