19
Iteration:   240charge 0 multiplicity 1
 C         0.130840        -0.442725        -0.426880
 C         1.582139        -0.117941        -0.123066
 C         2.222838        -1.103612         0.795504
 O         3.622024        -0.757585         1.063878
 C         4.166091         0.151062         0.150288
 C         3.890883        -0.299812        -1.293553
 C         2.507378         0.448423        -1.230545
 C         3.011578         1.366071        -0.094500
 O         1.800938         1.194217         0.625706
 H        -0.627584        -0.183980         0.302490
 H        -0.178125         0.056248        -1.459644
 H        -0.026309        -1.506444        -0.530756
 H         1.749336        -0.928840         1.720725
 H         2.115311        -2.141326         0.505773
 H         5.169351         0.399341         0.406509
 H         4.680759         0.078965        -2.047332
 H         3.892555        -1.384273        -1.386837
 H         2.049833         0.857387        -2.063921
 H         3.231978         2.423854        -0.124636
