19
Iteration:  3205
 C         0.105440        -0.409534        -0.137560
 C         1.566492        -0.003069        -0.067543
 C         2.233980        -0.763886         1.087898
 O         3.601314        -0.471904         1.338996
 C         4.118393         0.186380         0.213388
 C         3.850715        -0.810858        -1.064854
 C         2.560595        -0.045639        -1.376101
 C         3.079056         1.147746        -0.564858
 O         1.775045         1.511666         0.019980
 H        -0.247934        -0.991028         0.755985
 H        -0.297615         0.665600        -0.261556
 H        -0.120819        -0.894080        -1.117654
 H         1.839079        -0.781254         2.112184
 H         2.041516        -1.793683         0.852922
 H         5.079723         0.677415         0.438876
 H         4.748940        -0.452245        -1.622711
 H         3.884628        -1.824464        -0.760579
 H         2.189550        -0.139178        -2.469369
 H         3.644944         1.975309        -1.089068
