19
Iteration:  1067
 C         0.117750        -0.456318        -0.284776
 C         1.541746        -0.042049        -0.057818
 C         2.110338        -0.911670         1.021171
 O         3.585613        -0.599609         1.169532
 C         4.119053         0.149623         0.179687
 C         3.997366        -0.484623        -1.219843
 C         2.572978         0.178831        -1.360951
 C         3.042066         1.222170        -0.339877
 O         1.835864         1.322435         0.362169
 H        -0.496942         0.334946        -0.724288
 H         0.086583        -1.475867        -0.892396
 H        -0.202513        -0.718779         0.732761
 H         1.572914        -0.662747         2.082918
 H         2.000135        -1.942353         0.717142
 H         5.070214         0.623120         0.540789
 H         4.539403        -0.021729        -1.976203
 H         4.176011        -1.513825        -1.405903
 H         2.091808         0.441847        -2.287422
 H         3.367585         2.180493        -0.869566
