19
Iteration:  3383
 C         0.083189        -0.300531        -0.396893
 C         1.569396         0.003698         0.000490
 C         2.246571        -0.782795         1.173551
 O         3.576460        -0.202114         1.299085
 C         4.115500         0.245119         0.061025
 C         3.884064        -0.934426        -0.921621
 C         2.582179        -0.193672        -1.244424
 C         3.061540         1.110891        -0.646758
 O         1.824783         1.401522         0.141999
 H        -0.377733         0.496937        -1.065686
 H         0.026209        -1.289534        -0.892235
 H        -0.513738        -0.320278         0.606538
 H         1.915518        -0.428867         2.141831
 H         2.277483        -1.856075         0.991521
 H         5.184791         0.615142         0.295828
 H         4.494962        -1.012138        -1.838970
 H         3.789949        -1.968370        -0.622837
 H         1.891529        -0.500534        -2.056574
 H         3.347163         1.993415        -1.249178
