19
Iteration:  2433
 C         0.167153        -0.341384        -0.325526
 C         1.517715        -0.109645         0.028757
 C         2.191749        -0.812866         1.134727
 O         3.542506        -0.420462         1.285780
 C         4.123694         0.203779         0.111046
 C         3.980687        -0.710053        -1.112001
 C         2.580242        -0.097043        -1.322491
 C         3.037259         1.198682        -0.541640
 O         1.815172         1.416421         0.211525
 H        -0.458628        -0.160912         0.628018
 H        -0.162105         0.531097        -1.023417
 H        -0.171565        -1.271403        -0.753152
 H         1.613993        -0.509368         2.024572
 H         2.053876        -1.873606         0.901161
 H         5.097248         0.616389         0.369776
 H         4.672324        -0.549251        -1.951776
 H         4.008740        -1.855834        -0.898754
 H         1.954650        -0.171585        -2.183205
 H         3.451111         2.020731        -1.069806
