19
Iteration:  3400
 C         0.073349        -0.291434        -0.294092
 C         1.522882        -0.129293        -0.061979
 C         2.178104        -0.688719         1.236894
 O         3.556960        -0.190645         1.353648
 C         4.101857         0.212237         0.094567
 C         3.920198        -0.848818        -1.009020
 C         2.516644        -0.228463        -1.269832
 C         3.065902         1.077685        -0.712458
 O         1.949188         1.375608         0.107399
 H        -0.140367         0.747849        -0.465717
 H         0.092899        -1.025667        -1.135019
 H        -0.561214        -0.731102         0.430731
 H         1.593799        -0.482079         2.177437
 H         2.104740        -1.803562         1.062577
 H         4.984362         0.698142         0.392609
 H         4.663194        -0.776597        -1.825481
 H         4.194243        -1.937193        -0.601826
 H         2.062590        -0.230164        -2.295213
 H         3.324999         2.036654        -1.254705
