19
Iteration:   295
 C         0.024998        -0.341249        -0.415954
 C         1.584774        -0.120474        -0.160901
 C         2.306778        -1.146547         0.729581
 O         3.610692        -0.643247         1.120380
 C         4.156412         0.178959         0.164609
 C         3.861606        -0.383458        -1.219883
 C         2.541022         0.330766        -1.233279
 C         3.049154         1.348035        -0.163741
 O         1.776924         1.177662         0.660463
 H        -0.247785        -0.794915         0.507654
 H        -0.456378         0.716967        -0.705089
 H        -0.222834        -0.967753        -1.295474
 H         1.760139        -1.452664         1.565739
 H         2.374211        -2.039264         0.042575
 H         5.162453         0.462790         0.455115
 H         4.505528         0.278930        -1.965535
 H         4.032024        -1.438843        -1.478333
 H         2.227779         0.581641        -2.171621
 H         3.328171         2.385740        -0.165947
