19
Iteration:  2646
 C         0.067690        -0.456345        -0.236679
 C         1.609316        -0.083676        -0.127690
 C         2.213001        -0.911987         0.913044
 O         3.437846        -0.259063         1.295621
 C         4.195953         0.106905         0.089787
 C         3.864522        -0.764375        -1.086024
 C         2.574700         0.070873        -1.317036
 C         3.079246         1.262002        -0.425364
 O         1.909273         1.342757         0.292903
 H        -0.360965        -0.747555        -1.160737
 H        -0.155524        -1.176068         0.506961
 H        -0.387612         0.549349         0.033799
 H         1.677008        -0.750533         1.861948
 H         2.418281        -1.904513         0.658580
 H         5.197707         0.484339         0.493089
 H         4.638113        -0.645252        -1.807718
 H         3.667453        -1.794763        -1.037715
 H         2.114459         0.320286        -2.347517
 H         3.347678         2.336135        -0.664891
