19
Iteration:  2946
 C         0.149729        -0.348287        -0.293257
 C         1.574781        -0.140965        -0.069945
 C         2.151825        -0.777410         1.102269
 O         3.652317        -0.576325         1.152201
 C         4.073232         0.235476         0.180464
 C         3.961555        -0.672178        -1.070330
 C         2.511589        -0.079043        -1.279162
 C         2.974476         1.160295        -0.490603
 O         1.845571         1.508828         0.192945
 H        -0.273580         0.059965        -1.180129
 H        -0.155321        -1.430105        -0.255907
 H        -0.353877         0.202724         0.526079
 H         1.754348        -0.400110         2.052704
 H         2.018861        -1.893015         1.265122
 H         5.073163         0.697925         0.473334
 H         4.632076        -0.283715        -1.851214
 H         4.102200        -1.703084        -0.654952
 H         2.069221        -0.137969        -2.268862
 H         3.365803         2.117777        -0.917314
