19
Iteration:  1339charge 0 multiplicity 1
 C         0.085355        -0.424179        -0.273583
 C         1.527801        -0.128991        -0.066124
 C         2.201402        -0.830553         1.066084
 O         3.532515        -0.507674         1.291071
 C         4.079222         0.140996         0.165269
 C         4.023298        -0.616831        -1.195779
 C         2.627781         0.086727        -1.304824
 C         3.094867         1.263102        -0.443794
 O         1.799371         1.376859         0.204562
 H        -0.097513        -1.489485        -0.245883
 H        -0.417054         0.014798         0.621026
 H        -0.262235         0.088827        -1.125032
 H         1.586160        -0.593549         1.925634
 H         2.071132        -1.979346         0.863475
 H         5.081939         0.405094         0.578359
 H         4.667231        -0.259606        -1.995800
 H         3.914306        -1.741460        -1.125345
 H         1.947019         0.277300        -2.337295
 H         3.486794         2.173729        -0.783866
