19
Iteration:  2985charge 0 multiplicity 1
 C         0.063477        -0.433286        -0.229258
 C         1.550213        -0.104968        -0.114652
 C         2.189430        -0.820889         1.111534
 O         3.537563        -0.349567         1.373907
 C         4.151051         0.128585         0.152091
 C         3.864227        -0.703775        -1.181768
 C         2.580291         0.002129        -1.351439
 C         3.088310         1.193293        -0.496028
 O         1.893116         1.411615         0.175240
 H        -0.472847         0.515688        -0.569376
 H        -0.087749        -1.240406        -0.972261
 H        -0.252903        -0.846979         0.714509
 H         1.588363        -0.456962         1.990626
 H         2.146781        -1.966908         0.964228
 H         5.170840         0.383542         0.308832
 H         4.642756        -0.356636        -1.921872
 H         3.826266        -1.793665        -1.132954
 H         2.002687         0.306211        -2.269323
 H         3.665319         2.021992        -0.910134
