19
Iteration:  4341charge 0 multiplicity 1
 C         0.123058        -0.354373        -0.216095
 C         1.569318        -0.013893        -0.009806
 C         2.162839        -0.275872         1.433644
 O         3.504874         0.100322         1.357674
 C         4.086573         0.136346         0.085082
 C         3.916479        -1.138976        -0.675210
 C         2.557560        -0.480063        -1.185592
 C         3.100226         0.901943        -0.960675
 O         1.918471         1.361592        -0.351577
 H        -0.227327        -1.336940         0.256480
 H        -0.497675         0.505347         0.231943
 H        -0.089319        -0.393944        -1.302847
 H         1.534934         0.399833         2.011715
 H         1.972825        -1.327744         1.742105
 H         5.153370         0.429038         0.101835
 H         4.733828        -1.183834        -1.456252
 H         3.911853        -1.971757         0.001333
 H         2.065619        -0.816909        -2.098519
 H         3.441612         1.706520        -1.587140
