19
Iteration:   946
 C         0.060406        -0.483661        -0.265764
 C         1.548240         0.016882        -0.166306
 C         2.212787        -0.910600         1.011249
 O         3.650087        -0.709601         1.195223
 C         4.139275         0.152319         0.203687
 C         3.945138        -0.545873        -1.193089
 C         2.576725         0.190102        -1.292491
 C         3.044382         1.281595        -0.333398
 O         1.746879         1.389156         0.299136
 H        -0.398263         0.221416        -0.980090
 H         0.081752        -1.486500        -0.742819
 H        -0.506283        -0.617016         0.631713
 H         1.734827        -0.451451         1.948164
 H         2.034275        -1.914051         0.826715
 H         5.076207         0.529671         0.637929
 H         4.628738        -0.180435        -1.852805
 H         4.165859        -1.567590        -1.158308
 H         2.080567         0.597367        -2.345221
 H         3.390900         2.266693        -0.768060
