19
Iteration:   373
 C         0.114934        -0.400490        -0.456198
 C         1.588439        -0.089446        -0.095048
 C         2.277685        -1.163920         0.831376
 O         3.618808        -0.675640         1.157977
 C         4.065539         0.219004         0.155801
 C         3.849221        -0.408834        -1.316421
 C         2.573845         0.418050        -1.272880
 C         2.996628         1.307230        -0.166921
 O         1.822278         1.242551         0.618524
 H        -0.141193        -1.389094        -0.120200
 H        -0.538390         0.200481         0.145554
 H         0.041548        -0.242716        -1.608467
 H         1.783688        -1.285578         1.751972
 H         2.228569        -2.193954         0.276221
 H         5.157419         0.449585         0.339229
 H         4.619776         0.005425        -2.029249
 H         3.756481        -1.542929        -1.306613
 H         2.073044         0.687645        -2.139456
 H         3.330140         2.342534        -0.204006
