19
Iteration:  3250charge 0 multiplicity 1
 C         0.050142        -0.383390        -0.338561
 C         1.570933        -0.134903        -0.053400
 C         2.260263        -0.764692         1.097014
 O         3.531567        -0.157514         1.343564
 C         4.060753         0.146429         0.075729
 C         3.884353        -0.841188        -1.055487
 C         2.488807        -0.096139        -1.365776
 C         3.091732         1.154102        -0.587993
 O         1.990693         1.358501         0.284597
 H        -0.204875        -1.418867        -0.029131
 H        -0.647647         0.337371         0.191511
 H        -0.102379        -0.200719        -1.484998
 H         1.568210        -0.513126         1.951441
 H         2.407385        -1.830734         1.268501
 H         5.097251         0.519640         0.391356
 H         4.563039        -0.693951        -1.935167
 H         3.630217        -1.808739        -0.722031
 H         1.774385         0.046089        -2.273479
 H         3.643712         2.078729        -0.992469
