19
Iteration:   248charge 0 multiplicity 1
 C         0.196747        -0.466866        -0.472070
 C         1.624214        -0.060531        -0.113786
 C         2.288308        -1.111182         0.761997
 O         3.601501        -0.739528         1.100409
 C         4.069921         0.144664         0.130463
 C         3.829231        -0.336996        -1.285604
 C         2.477264         0.408776        -1.243253
 C         3.020519         1.422660        -0.103938
 O         1.825752         1.174987         0.692686
 H        -0.428856        -0.068124         0.418229
 H         0.047297         0.155707        -1.501925
 H         0.028792        -1.473522        -0.668512
 H         1.521448        -0.931436         1.651195
 H         2.131907        -2.216367         0.491262
 H         5.070860         0.307878         0.470722
 H         4.674375         0.203538        -1.963213
 H         3.822105        -1.427752        -1.520235
 H         1.856575         0.660638        -2.167934
 H         3.330547         2.490196        -0.297697
