19
Iteration:  2621
 C         0.087705        -0.354023        -0.217372
 C         1.619168        -0.030367        -0.064173
 C         2.273256        -0.942456         0.954186
 O         3.541007        -0.469406         1.355967
 C         4.043563         0.229982         0.140062
 C         3.855234        -0.721178        -1.049271
 C         2.536977         0.063050        -1.408101
 C         3.082931         1.218356        -0.517360
 O         1.847359         1.397995         0.217973
 H        -0.072252        -0.676871        -1.234221
 H        -0.054138        -1.219057         0.406419
 H        -0.600616         0.452703        -0.056859
 H         1.805329        -0.934079         1.968473
 H         2.505680        -1.961211         0.478545
 H         5.033728         0.620806         0.556592
 H         4.667638        -0.504670        -1.738714
 H         3.883637        -1.839857        -0.816708
 H         2.018743         0.154459        -2.378669
 H         3.572382         2.181774        -0.750404
