19
Iteration:  4291
 C         0.054573        -0.318586        -0.181771
 C         1.543707        -0.054541        -0.033828
 C         2.201204        -0.451087         1.395384
 O         3.449036         0.231627         1.367881
 C         4.134989         0.186931         0.146339
 C         3.837632        -1.184734        -0.727372
 C         2.621865        -0.470107        -1.224491
 C         3.205569         0.945227        -0.949562
 O         1.910205         1.376747        -0.286634
 H        -0.431995         0.015837         0.694810
 H        -0.307644         0.186303        -1.091459
 H        -0.173363        -1.361387        -0.303343
 H         1.585193        -0.081685         2.239636
 H         2.354389        -1.544251         1.317200
 H         5.192274         0.531514         0.070904
 H         4.506120        -1.260297        -1.572703
 H         3.707402        -2.195806        -0.227878
 H         2.161403        -0.887289        -2.122626
 H         3.428649         1.735718        -1.740897
