19
Iteration:  3501charge 0 multiplicity 1
 C         0.021116        -0.332023        -0.382538
 C         1.568170        -0.118123         0.008672
 C         2.216186        -0.614137         1.349723
 O         3.521627        -0.035288         1.355489
 C         4.160281         0.171060         0.098204
 C         3.863950        -1.011653        -1.026155
 C         2.543783        -0.231581        -1.303631
 C         3.062691         1.100147        -0.709164
 O         1.935324         1.334068         0.091917
 H        -0.484718        -0.871106         0.377563
 H        -0.315566         0.648342        -0.402313
 H        -0.036613        -0.869078        -1.350154
 H         1.621568        -0.147396         2.117471
 H         2.361279        -1.690246         1.230636
 H         5.173082         0.568170         0.381790
 H         4.604983        -0.806319        -1.870636
 H         3.938991        -2.118184        -0.907114
 H         2.020476        -0.406866        -2.260272
 H         3.534599         2.044633        -1.223131
