19
Iteration:  3171charge 0 multiplicity 1
 C         0.117503        -0.300655        -0.235980
 C         1.545050        -0.087656        -0.048753
 C         2.162258        -0.773928         1.114646
 O         3.523176        -0.345766         1.236520
 C         4.174961         0.214514         0.093757
 C         3.938362        -0.752300        -1.069420
 C         2.535078        -0.179384        -1.319909
 C         3.101272         1.177696        -0.552216
 O         1.855716         1.328694         0.227042
 H        -0.497544        -0.144472         0.679801
 H        -0.289313         0.626477        -0.788213
 H        -0.167704        -1.180521        -0.790318
 H         1.643794        -0.356338         2.000106
 H         2.168311        -1.815312         1.028310
 H         5.034888         0.620285         0.543813
 H         4.622870        -0.366815        -1.868963
 H         4.135234        -1.818597        -0.943579
 H         1.979157        -0.267583        -2.288720
 H         3.379382         2.081405        -1.103472
