19
Iteration:  1802charge 0 multiplicity 1
 C         0.056939        -0.435433        -0.264456
 C         1.550875        -0.056363        -0.131972
 C         2.159132        -0.759484         1.031764
 O         3.575056        -0.443116         1.327477
 C         4.149830         0.137513         0.185485
 C         3.937758        -0.663465        -1.048625
 C         2.565003        -0.018386        -1.299831
 C         3.081649         1.197699        -0.554064
 O         1.852468         1.413971         0.178752
 H        -0.522826         0.255559         0.447622
 H        -0.391729        -0.489808        -1.236922
 H        -0.133564        -1.472371         0.127247
 H         1.526944        -0.534478         2.047365
 H         2.224365        -1.817735         0.922581
 H         5.192075         0.537293         0.427756
 H         4.617445        -0.424291        -1.935759
 H         3.834502        -1.723267        -0.912153
 H         2.290164        -0.145841        -2.333579
 H         3.473175         2.148292        -1.002139
