19
Iteration:  4741charge 0 multiplicity 1
 C         0.104011        -0.248785        -0.151006
 C         1.637642        -0.026385        -0.042207
 C         2.138470        -0.027159         1.415499
 O         3.501066         0.453005         1.431934
 C         4.072814         0.159526         0.069092
 C         3.874255        -1.319097        -0.326443
 C         2.620082        -0.726427        -1.057752
 C         3.088688         0.710510        -1.176746
 O         1.916281         1.231793        -0.671178
 H        -0.172703        -1.294824         0.166870
 H        -0.275195         0.517267         0.510746
 H        -0.257299         0.040760        -1.170222
 H         1.542394         0.596132         2.030701
 H         2.062686        -1.052131         1.758298
 H         5.052887         0.640410        -0.119099
 H         4.614810        -1.756351        -1.018765
 H         3.558654        -2.050076         0.536073
 H         2.038474        -1.227888        -1.903372
 H         3.692973         1.072336        -2.083527
