19
Iteration:   968charge 0 multiplicity 1
 C         0.140280        -0.449635        -0.218593
 C         1.557014        -0.063497        -0.102455
 C         2.158522        -0.948822         0.979671
 O         3.554340        -0.685174         1.193012
 C         4.113203         0.182969         0.169454
 C         3.979454        -0.489501        -1.210102
 C         2.652309         0.154925        -1.367085
 C         3.019561         1.312825        -0.354652
 O         1.767194         1.372881         0.316762
 H        -0.242029         0.036967        -1.132669
 H         0.034092        -1.561437        -0.183063
 H        -0.406605        -0.035790         0.631241
 H         1.639398        -0.697849         1.981115
 H         2.035068        -1.935601         0.696233
 H         5.081082         0.553424         0.555377
 H         4.663467        -0.142315        -1.886481
 H         4.019515        -1.544260        -1.238079
 H         1.944710         0.338126        -2.284014
 H         3.604389         2.275342        -0.380999
