19
Iteration:  2822
 C         0.071237        -0.379033        -0.352233
 C         1.600725        -0.107297        -0.020609
 C         2.176703        -0.765338         1.264321
 O         3.554951        -0.475365         1.282034
 C         4.045700         0.134471         0.141511
 C         4.003433        -0.652583        -1.208514
 C         2.602916        -0.097499        -1.326565
 C         2.992044         1.254073        -0.514080
 O         1.870369         1.379190         0.202035
 H        -0.150293         0.510160        -0.975519
 H        -0.273644        -1.268900        -0.795654
 H        -0.505966        -0.290226         0.555805
 H         1.837650        -0.199430         2.164976
 H         1.953398        -1.915607         1.475192
 H         5.054355         0.362105         0.392945
 H         4.647382        -0.007087        -1.877094
 H         4.307770        -1.683700        -1.313424
 H         2.043106         0.010568        -2.321167
 H         3.332200         2.061618        -1.183158
