19
Iteration:  3328charge 0 multiplicity 1
 C         0.080294        -0.435559        -0.106362
 C         1.589883        -0.090274        -0.114003
 C         2.136244        -0.682197         1.117402
 O         3.456699        -0.225682         1.350267
 C         4.124619         0.127080         0.093340
 C         3.972331        -0.856542        -1.053684
 C         2.619139        -0.089488        -1.352899
 C         3.092215         1.158229        -0.601042
 O         1.897481         1.404834         0.091095
 H        -0.208008        -0.793384        -1.126071
 H        -0.177054        -1.103803         0.724424
 H        -0.524508         0.567971         0.059127
 H         1.532501        -0.333530         1.987536
 H         2.040132        -1.794116         1.138732
 H         5.210212         0.138736         0.452529
 H         4.495148        -0.594088        -2.023830
 H         4.093126        -1.956312        -0.949135
 H         2.036310         0.028110        -2.323936
 H         3.423970         2.094657        -1.125699
