19
Iteration:   737charge 0 multiplicity 1
 C         0.061868        -0.342589        -0.306379
 C         1.584276        -0.126041        -0.130179
 C         2.222235        -1.037056         0.909362
 O         3.556367        -0.552941         1.295616
 C         4.085257         0.212590         0.196585
 C         3.984501        -0.510057        -1.189795
 C         2.544335         0.173865        -1.294061
 C         3.060884         1.312385        -0.395960
 O         1.846128         1.255861         0.375971
 H        -0.133089        -0.907055        -1.282271
 H        -0.381692        -0.931125         0.495442
 H        -0.457536         0.617260        -0.286659
 H         1.621334        -0.899153         1.863358
 H         2.254162        -2.116591         0.524217
 H         5.045833         0.380076         0.600888
 H         4.578392        -0.063055        -2.050557
 H         4.051209        -1.604731        -1.457431
 H         2.074318         0.436394        -2.258733
 H         3.352398         2.325730        -0.687098
