19
Iteration:  4062
 C         0.221082        -0.361909        -0.245413
 C         1.639970         0.001733        -0.033069
 C         2.239577        -0.533331         1.213731
 O         3.531725        -0.047534         1.360824
 C         4.100204         0.164528         0.157170
 C         3.802292        -1.137536        -0.786233
 C         2.453190        -0.280428        -1.237600
 C         3.029302         1.078969        -0.873149
 O         1.878261         1.431132        -0.097092
 H        -0.364680         0.164887         0.541442
 H        -0.093289        -0.115371        -1.317022
 H         0.053793        -1.469000        -0.218720
 H         1.670503        -0.207895         2.125650
 H         2.344791        -1.677050         1.193712
 H         5.159759         0.544783         0.297967
 H         4.577050        -1.208987        -1.558766
 H         3.754045        -2.014586        -0.161527
 H         1.914684        -0.410903        -2.218205
 H         3.557810         1.777038        -1.585654
