19
Iteration:  2928
 C         0.049006        -0.326201        -0.336801
 C         1.571092        -0.067560         0.013165
 C         2.202912        -0.814137         1.151969
 O         3.558506        -0.526164         1.307997
 C         4.132949         0.291099         0.082590
 C         3.947523        -0.662729        -1.162066
 C         2.564945        -0.054259        -1.260879
 C         3.060025         1.229982        -0.606893
 O         1.848134         1.308195         0.275924
 H        -0.158022        -0.219455        -1.429558
 H        -0.262192        -1.337775        -0.110248
 H        -0.650382         0.467833         0.102743
 H         1.739583        -0.543543         2.129825
 H         2.073025        -1.981142         1.120176
 H         5.120590         0.712857         0.391703
 H         4.533637        -0.428936        -2.066540
 H         4.148350        -1.757363        -1.002566
 H         2.078052         0.042411        -2.218761
 H         3.494514         2.062647        -1.154527
