19
Iteration:  4213charge 0 multiplicity 1
 C         0.111428        -0.317050        -0.238053
 C         1.588566        -0.014243        -0.041397
 C         2.200758        -0.376985         1.307576
 O         3.548140         0.009719         1.408443
 C         4.053234         0.184357         0.124701
 C         3.830398        -1.089696        -0.730770
 C         2.580968        -0.488616        -1.206302
 C         3.091173         0.957950        -0.884360
 O         1.892353         1.421563        -0.251085
 H        -0.293863        -0.164305        -1.263159
 H         0.093766        -1.438298        -0.067074
 H        -0.480325         0.139616         0.484762
 H         1.708254         0.275320         2.054877
 H         2.112189        -1.495499         1.620490
 H         5.198249         0.516845         0.100242
 H         4.482700        -1.128851        -1.643750
 H         4.046106        -2.182208        -0.445757
 H         2.079531        -0.799741        -2.102207
 H         3.490257         1.812476        -1.571111
