19
Iteration:   819charge 0 multiplicity 1
 C         0.051457        -0.475273        -0.288919
 C         1.522874        -0.096432        -0.060276
 C         2.149654        -0.901924         1.025111
 O         3.546018        -0.604603         1.201830
 C         4.129550         0.167253         0.173907
 C         4.054849        -0.486478        -1.268760
 C         2.631424         0.180482        -1.338428
 C         3.067626         1.259718        -0.363455
 O         1.797961         1.342628         0.353902
 H        -0.282954        -0.263309        -1.297284
 H        -0.120094        -1.619580         0.017856
 H        -0.509973         0.290994         0.360396
 H         1.542217        -0.799871         1.917842
 H         1.961922        -1.905454         0.635981
 H         5.174097         0.217323         0.611820
 H         4.766334         0.026916        -2.037460
 H         3.953048        -1.589213        -1.249358
 H         2.229164         0.455460        -2.214793
 H         3.456868         2.293253        -0.512601
