19
Iteration:  1481
 C         0.076216        -0.332057        -0.338789
 C         1.507474        -0.091410        -0.083621
 C         2.258137        -0.857845         1.076135
 O         3.548745        -0.411907         1.353269
 C         4.107856         0.195739         0.202166
 C         3.945402        -0.676286        -1.141363
 C         2.566915        -0.016029        -1.338292
 C         3.090600         1.216467        -0.487446
 O         1.848898         1.329384         0.208465
 H        -0.258342        -0.308212        -1.371213
 H        -0.320784        -1.356627         0.007948
 H        -0.597011         0.324488         0.235309
 H         1.758597        -0.619259         2.076907
 H         2.203015        -1.946835         0.914841
 H         5.119528         0.563897         0.260721
 H         4.595237        -0.272552        -1.914607
 H         4.038592        -1.811021        -1.054107
 H         2.063582         0.043734        -2.261606
 H         3.369804         2.128117        -0.871571
