19
Iteration:  1011charge 0 multiplicity 1
 C         0.040802        -0.244590        -0.400600
 C         1.562345        -0.127523        -0.046439
 C         2.367470        -1.063674         0.835466
 O         3.572651        -0.383547         1.300690
 C         4.087911         0.207331         0.135858
 C         3.916984        -0.619396        -1.192796
 C         2.498549         0.086903        -1.362490
 C         3.003990         1.293824        -0.297272
 O         1.862998         1.217834         0.513149
 H         0.021325         0.089543        -1.526851
 H        -0.285412        -1.357450        -0.303869
 H        -0.623116         0.464236         0.146525
 H         1.676856        -1.268549         1.824063
 H         2.630471        -1.978842         0.310245
 H         5.109714         0.572657         0.320988
 H         4.511366        -0.238423        -1.978971
 H         3.948652        -1.729958        -1.089822
 H         2.020101         0.061453        -2.417939
 H         3.247300         2.327908        -0.676959
