19
Iteration:  1292charge 0 multiplicity 1
 C         0.013449        -0.299664        -0.282038
 C         1.568854        -0.104771        -0.092163
 C         2.241612        -1.044866         0.937075
 O         3.514071        -0.419139         1.243985
 C         4.151871         0.275865         0.173123
 C         3.976314        -0.671238        -1.093506
 C         2.611134         0.027379        -1.321057
 C         3.047873         1.234616        -0.469497
 O         1.834275         1.352733         0.344497
 H        -0.500140        -0.973176         0.548484
 H        -0.405802         0.687237        -0.321032
 H        -0.084509        -0.735570        -1.341604
 H         1.727861        -1.107975         2.016425
 H         2.370243        -2.112375         0.590537
 H         5.056445         0.771728         0.542340
 H         4.616812        -0.418682        -1.979644
 H         3.927136        -1.738850        -0.884870
 H         1.984186         0.182187        -2.270733
 H         3.365298         2.188664        -0.862710
