19
Iteration:  3628charge 0 multiplicity 1
 C         0.105760        -0.346314        -0.401396
 C         1.527152        -0.064029        -0.008196
 C         2.246981        -0.612461         1.213393
 O         3.646734        -0.138587         1.428255
 C         4.111631         0.249005         0.011224
 C         3.921382        -1.021669        -0.844454
 C         2.459463        -0.387380        -1.244934
 C         3.016214         1.116187        -0.764367
 O         1.877020         1.501232         0.065491
 H         0.136645        -1.209574        -1.091053
 H        -0.676212        -0.593196         0.413953
 H        -0.108819         0.655910        -0.842438
 H         1.683911        -0.372330         2.106009
 H         2.042952        -1.694332         1.379225
 H         5.121690         0.534952        -0.018026
 H         4.328993        -0.919400        -1.760825
 H         3.974625        -1.994303        -0.413751
 H         1.965300        -0.591071        -2.215089
 H         3.455760         1.883238        -1.319851
