19
Iteration:  4914
 C         0.043819        -0.306133        -0.201917
 C         1.569777        -0.054619        -0.063710
 C         2.191879         0.131760         1.329167
 O         3.564297         0.570843         1.288310
 C         4.178529         0.126489         0.113748
 C         3.802563        -1.358983        -0.165770
 C         2.556888        -0.819807        -0.941878
 C         3.132565         0.616417        -1.134055
 O         1.917432         1.268288        -0.713969
 H        -0.505805        -0.637364         0.683662
 H        -0.409526         0.542603        -0.681692
 H         0.127587        -1.192533        -0.930894
 H         1.659124         0.923633         1.899440
 H         1.898394        -0.796980         1.962841
 H         5.249354         0.452503         0.136902
 H         4.545073        -1.915273        -0.668040
 H         3.608929        -1.866548         0.795492
 H         2.136305        -1.277260        -1.787447
 H         3.240584         1.032061        -2.188073
