19
Iteration:  2170charge 0 multiplicity 1
 C         0.116147        -0.334672        -0.208305
 C         1.546890        -0.079656        -0.131749
 C         2.159382        -0.862975         1.024864
 O         3.510266        -0.316846         1.389273
 C         4.080400         0.188198         0.166018
 C         3.975625        -0.768168        -1.106032
 C         2.567405        -0.008070        -1.337813
 C         3.057054         1.209174        -0.598735
 O         1.887993         1.316918         0.167330
 H        -0.419316         0.282971         0.525513
 H        -0.179652        -0.009841        -1.180359
 H        -0.094107        -1.356566         0.183422
 H         1.532301        -0.791411         2.044871
 H         2.218225        -1.968438         0.805433
 H         5.001642         0.648442         0.550985
 H         4.810780        -0.455157        -1.660803
 H         4.053840        -1.870112        -0.910401
 H         2.128394        -0.049823        -2.363042
 H         3.502502         2.133608        -0.931805
