19
Iteration:  3752
 C         0.070586        -0.308380        -0.310320
 C         1.544875        -0.123898        -0.070335
 C         2.177318        -0.553477         1.286878
 O         3.547897        -0.142541         1.351201
 C         4.114016         0.181490         0.069230
 C         3.960460        -0.945037        -1.030055
 C         2.531543        -0.253777        -1.284671
 C         3.106628         1.058597        -0.691783
 O         1.879625         1.356130         0.102708
 H        -0.286717        -0.958858         0.527174
 H        -0.373080         0.670931        -0.280914
 H        -0.302027        -0.657827        -1.316788
 H         1.569086        -0.076589         2.090932
 H         2.193725        -1.799393         1.470614
 H         5.159648         0.606373         0.138387
 H         4.659234        -0.823872        -1.791611
 H         3.896118        -1.898027        -0.508522
 H         2.143057        -0.460326        -2.309058
 H         3.400985         2.007602        -1.241163
