19
Iteration:  2848
 C         0.113838        -0.375058        -0.238850
 C         1.563266        -0.011286        -0.132506
 C         2.099081        -0.808382         1.074721
 O         3.590608        -0.481896         1.281788
 C         4.152623         0.235795         0.173046
 C         3.994212        -0.725816        -1.164321
 C         2.544836        -0.037393        -1.278372
 C         3.049194         1.191424        -0.456796
 O         1.825252         1.377987         0.187605
 H        -0.312643        -0.197230        -1.226727
 H         0.022168        -1.481585        -0.005298
 H        -0.517265         0.067331         0.538927
 H         1.696950        -0.496944         2.040834
 H         2.056195        -1.957198         0.975253
 H         5.107825         0.723277         0.469286
 H         4.466924        -0.379907        -2.079123
 H         3.989348        -1.797699        -0.958223
 H         2.127940         0.255950        -2.228544
 H         3.469218         1.983319        -1.088199
