19
Iteration:  3277
 C         0.138056        -0.263289        -0.341964
 C         1.590777        -0.075215         0.038822
 C         2.212402        -0.800316         1.160672
 O         3.637974        -0.260543         1.304198
 C         4.121055         0.186016         0.144945
 C         3.902585        -0.829655        -1.030756
 C         2.532777        -0.169011        -1.278296
 C         3.026443         1.177301        -0.682636
 O         1.773555         1.380592         0.148161
 H        -0.044819        -1.243006        -0.815108
 H        -0.481232        -0.031549         0.503580
 H        -0.044428         0.510406        -1.014690
 H         1.777636        -0.866915         2.145253
 H         2.310729        -1.899696         1.031981
 H         5.115068         0.474353         0.432685
 H         4.461599        -0.743677        -1.946870
 H         3.666690        -1.887948        -0.726131
 H         1.902914        -0.263189        -2.109098
 H         3.427300         2.016574        -1.196563
