19
Iteration:  4585charge 0 multiplicity 1
 C         0.085714        -0.271109        -0.143802
 C         1.512873         0.000440        -0.043581
 C         2.175390        -0.078901         1.308104
 O         3.522799         0.278913         1.377248
 C         4.115323         0.246546         0.139450
 C         3.861132        -1.248502        -0.452964
 C         2.607449        -0.724831        -1.123989
 C         3.160017         0.725354        -1.009617
 O         1.882928         1.285538        -0.549515
 H         0.066642        -0.545040        -1.152676
 H        -0.463529        -0.973746         0.515958
 H        -0.475154         0.684884        -0.117503
 H         1.674841         0.471016         2.098875
 H         2.123546        -1.164579         1.742571
 H         5.069034         0.731600         0.079858
 H         4.562206        -1.308455        -1.309856
 H         3.930065        -2.188666         0.224438
 H         2.079922        -1.103588        -1.929921
 H         3.689805         1.281382        -1.829930
