19
Iteration:  1538
 C         0.078699        -0.409276        -0.375542
 C         1.520499        -0.036068        -0.088749
 C         2.241040        -0.890158         1.046344
 O         3.589596        -0.358465         1.386568
 C         4.132602         0.227243         0.139580
 C         3.855344        -0.758131        -1.093156
 C         2.565642         0.004195        -1.242254
 C         3.088252         1.205138        -0.537719
 O         1.833114         1.410691         0.255338
 H        -0.333788         0.538796        -0.580707
 H         0.225152        -1.038989        -1.327671
 H        -0.487646        -0.939297         0.462899
 H         1.666562        -0.781536         1.911361
 H         2.140205        -1.956353         0.710049
 H         5.221453         0.500287         0.119444
 H         4.670291        -0.770856        -1.896410
 H         3.808826        -1.841593        -0.803671
 H         2.048454         0.030742        -2.268010
 H         3.455130         2.005194        -1.097210
