19
Iteration:  4372
 C         0.069323        -0.339925        -0.171211
 C         1.560110         0.049157        -0.136886
 C         2.129880        -0.275581         1.326788
 O         3.522118         0.166072         1.443031
 C         4.117675         0.159379         0.149063
 C         3.885879        -1.165531        -0.690633
 C         2.595675        -0.554558        -1.128360
 C         3.130524         0.884866        -0.965939
 O         1.924768         1.352195        -0.388605
 H        -0.212129        -1.298263        -0.590808
 H        -0.072079        -0.536302         0.841163
 H        -0.606365         0.396709        -0.544773
 H         1.445168         0.282200         2.142842
 H         2.083600        -1.297779         1.808707
 H         5.148681         0.463422         0.140872
 H         4.671272        -1.128667        -1.615049
 H         3.911999        -2.179226        -0.208286
 H         2.132561        -0.975599        -2.090789
 H         3.444910         1.594800        -1.695487
