19
Iteration:  1402charge 0 multiplicity 1
 C         0.104848        -0.326985        -0.365206
 C         1.593590        -0.065546        -0.086562
 C         2.280102        -0.920375         1.045392
 O         3.501606        -0.283941         1.355770
 C         4.110753         0.167056         0.163611
 C         3.858592        -0.720440        -1.152613
 C         2.547679         0.015098        -1.313577
 C         3.095448         1.207050        -0.504410
 O         1.849804         1.292143         0.325941
 H         0.067049        -0.684414        -1.534704
 H        -0.381942        -1.148287         0.224180
 H        -0.615272         0.463997        -0.614667
 H         1.767445        -0.858623         2.143274
 H         2.489362        -1.976681         0.900878
 H         5.142934         0.536239         0.184333
 H         4.512742        -0.566379        -2.029609
 H         3.727630        -1.826051        -1.034670
 H         2.042293         0.151584        -2.175001
 H         3.496120         2.199948        -0.728546
