19
Iteration:  1924
 C         0.034380        -0.430301        -0.262354
 C         1.599829        -0.043693        -0.096235
 C         2.151483        -0.799738         1.104516
 O         3.547675        -0.382051         1.402495
 C         4.140249         0.133625         0.124916
 C         3.995855        -0.793080        -1.131243
 C         2.577809         0.009443        -1.293391
 C         3.046977         1.258041        -0.564704
 O         1.821876         1.384530         0.141752
 H        -0.494035        -0.363393         0.721370
 H        -0.434771         0.304603        -0.984683
 H         0.108795        -1.375448        -0.771110
 H         1.609589        -0.512241         2.134404
 H         2.129013        -1.845161         1.024337
 H         5.099143         0.532964         0.439467
 H         4.666117        -0.494668        -1.976847
 H         3.955589        -1.820535        -0.942357
 H         2.207640         0.096231        -2.272410
 H         3.642736         2.116719        -0.985144
