19
Iteration:   215charge 0 multiplicity 1
 C         0.009058        -0.408392        -0.297480
 C         1.536909        -0.058895        -0.095244
 C         2.270991        -1.160540         0.798409
 O         3.662495        -0.840070         1.056398
 C         4.067077         0.180919         0.236831
 C         4.066046        -0.242730        -1.352410
 C         2.602591         0.378742        -1.308584
 C         3.029253         1.313629        -0.121249
 O         1.699564         1.245842         0.541028
 H        -0.637575        -0.092147         0.622500
 H        -0.433872         0.226705        -1.189188
 H        -0.254895        -1.433933        -0.415201
 H         1.748380        -1.132976         1.820401
 H         2.160101        -2.158852         0.293071
 H         4.971362         0.623975         0.626883
 H         4.942821         0.307032        -1.944436
 H         4.197027        -1.339590        -1.579548
 H         2.181190         0.746213        -2.285557
 H         3.313063         2.399290        -0.153035
