19
Iteration:  4253charge 0 multiplicity 1
 C         0.044712        -0.314482        -0.113071
 C         1.572823        -0.021631        -0.086135
 C         2.144786        -0.412242         1.320820
 O         3.529417         0.041389         1.379030
 C         4.101540         0.215008         0.096455
 C         3.869945        -1.113946        -0.680213
 C         2.630863        -0.482924        -1.243120
 C         3.120961         0.964414        -0.950925
 O         1.912359         1.386333        -0.297161
 H        -0.563542         0.644037        -0.297859
 H        -0.233293        -0.924761        -1.017641
 H        -0.292817        -0.874147         0.818289
 H         1.657509         0.138279         2.127853
 H         2.058407        -1.434411         1.660110
 H         5.019080         0.629999         0.447187
 H         4.600053        -1.008729        -1.509572
 H         3.882263        -2.084492        -0.245919
 H         2.374730        -0.950881        -2.203745
 H         3.567273         1.713380        -1.561080
