19
Iteration:  4678
 C         0.138148        -0.273578        -0.149996
 C         1.591742        -0.048015        -0.057544
 C         2.153551        -0.030790         1.374385
 O         3.495757         0.431730         1.345999
 C         4.059398         0.128126         0.087601
 C         3.842278        -1.238974        -0.349465
 C         2.558244        -0.740673        -1.120312
 C         3.118262         0.662011        -1.050707
 O         1.969309         1.294476        -0.593292
 H        -0.474749         0.229635         0.709420
 H        -0.278556         0.064873        -1.142885
 H        -0.045092        -1.382003        -0.211363
 H         1.513545         0.658716         1.983815
 H         2.053508        -1.047263         1.945471
 H         5.118286         0.495482         0.195185
 H         4.608747        -1.378584        -1.121326
 H         3.817470        -2.014589         0.364320
 H         2.215928        -1.309669        -2.065487
 H         3.456975         1.275273        -1.863704
