19
Iteration:  3016charge 0 multiplicity 1
 C         0.147748        -0.346630        -0.363596
 C         1.594224        -0.082737        -0.043967
 C         2.259018        -0.880794         1.020917
 O         3.522133        -0.225850         1.330694
 C         4.145322         0.232933         0.068256
 C         3.799520        -0.832153        -1.044428
 C         2.552196        -0.059367        -1.299015
 C         2.990666         1.222055        -0.541701
 O         1.951533         1.339409         0.317233
 H        -0.483756         0.602801        -0.422858
 H         0.157016        -0.784054        -1.350263
 H        -0.318046        -1.045420         0.372520
 H         1.631539        -1.009664         1.925991
 H         2.150786        -1.968122         0.544124
 H         5.187096         0.394550         0.306881
 H         4.563725        -0.807213        -1.812873
 H         3.379421        -1.772723        -0.710206
 H         1.881824         0.096735        -2.131743
 H         3.377338         2.134065        -0.966967
