19
Iteration:  2642charge 0 multiplicity 1
 C         0.067963        -0.461283        -0.225193
 C         1.586393        -0.045509        -0.140512
 C         2.220364        -0.924351         0.902610
 O         3.464194        -0.270017         1.313789
 C         4.195185         0.120868         0.130033
 C         3.861984        -0.771600        -1.087305
 C         2.579943         0.057304        -1.316959
 C         3.090083         1.284603        -0.454405
 O         1.895344         1.343087         0.299911
 H        -0.372505        -0.722271        -1.201162
 H        -0.094082        -1.172997         0.606332
 H        -0.327875         0.499549         0.025055
 H         1.507221        -0.836973         1.780792
 H         2.432364        -2.021207         0.482696
 H         5.183463         0.562625         0.425656
 H         4.626627        -0.672205        -1.884358
 H         3.479902        -1.862041        -0.988219
 H         2.231887         0.331468        -2.290572
 H         3.322417         2.297576        -0.798982
