19
Iteration:  1751
 C         0.098926        -0.267370        -0.373281
 C         1.609886        -0.119682        -0.103241
 C         2.250728        -0.862415         1.049084
 O         3.519080        -0.244524         1.385521
 C         4.131618         0.240047         0.146745
 C         3.880243        -0.820178        -1.063180
 C         2.493101        -0.040866        -1.316393
 C         3.048890         1.199775        -0.606824
 O         1.884862         1.247368         0.323760
 H        -0.561382         0.350123         0.283022
 H         0.010225        -0.132709        -1.490725
 H        -0.260021        -1.268005        -0.217402
 H         1.781213        -0.750361         1.924012
 H         2.494907        -2.003062         0.936116
 H         5.097612         0.577218         0.302216
 H         4.620087        -0.607541        -1.913969
 H         3.930995        -1.947831        -0.956535
 H         2.064575         0.210381        -2.355517
 H         3.161202         2.264496        -0.973180
