19
Iteration:  1990charge 0 multiplicity 1
 C         0.086322        -0.300861        -0.359084
 C         1.569212        -0.084432        -0.026378
 C         2.212204        -0.843022         1.110215
 O         3.543610        -0.297845         1.319541
 C         4.107567         0.159017         0.100120
 C         3.959566        -0.767495        -1.093551
 C         2.581475        -0.042383        -1.284161
 C         3.074400         1.177705        -0.535567
 O         1.812284         1.311547         0.232159
 H        -0.547333         0.408216         0.216874
 H        -0.048546        -0.291382        -1.475230
 H        -0.156045        -1.325691        -0.091284
 H         1.509569        -0.513206         2.017941
 H         2.209766        -1.914977         0.838419
 H         5.125061         0.412325         0.346632
 H         4.468775        -0.373509        -1.989469
 H         4.240012        -1.722646        -0.906534
 H         1.974943         0.018080        -2.161787
 H         3.404133         2.189926        -0.885367
