19
Iteration:  4984
 C         0.033028        -0.253220        -0.117678
 C         1.528293         0.000246        -0.071863
 C         2.138740         0.174286         1.323784
 O         3.514514         0.630749         1.344619
 C         4.155684         0.224006         0.052168
 C         3.832629        -1.383296        -0.142709
 C         2.614098        -0.894878        -0.965961
 C         3.164381         0.551371        -1.125359
 O         1.975034         1.138929        -0.816292
 H        -0.284492        -0.847150        -0.980708
 H        -0.282423        -0.746350         0.790571
 H        -0.417253         0.665180        -0.170661
 H         1.475575         0.838668         1.872804
 H         2.003035        -0.817092         1.945125
 H         5.092997         0.762320         0.103059
 H         4.484275        -2.019261        -0.853675
 H         3.669237        -2.009308         0.795055
 H         2.100872        -1.524214        -1.765829
 H         3.693322         1.070812        -1.983312
