19
Iteration:  4683charge 0 multiplicity 1
 C         0.081959        -0.270581        -0.142359
 C         1.579784        -0.034279        -0.026990
 C         2.137311        -0.036821         1.414333
 O         3.458038         0.430436         1.324828
 C         4.112012         0.136401         0.106726
 C         3.870110        -1.242238        -0.370869
 C         2.581951        -0.810446        -1.118029
 C         3.100666         0.719587        -1.076283
 O         1.987086         1.307405        -0.601257
 H        -0.498027         0.016274         0.648861
 H        -0.409923         0.203885        -0.982282
 H        -0.041025        -1.323142        -0.264089
 H         1.544933         0.686805         2.016717
 H         1.986161        -0.974700         1.842283
 H         5.139347         0.440993         0.070916
 H         4.638450        -1.522344        -1.141855
 H         3.965374        -2.169691         0.327421
 H         2.293306        -1.281632        -1.997928
 H         3.658160         1.288811        -1.890468
