19
Iteration:   495
 C         0.126293        -0.390799        -0.392238
 C         1.590701        -0.125704        -0.115169
 C         2.227703        -1.071077         0.818092
 O         3.561031        -0.614485         1.201451
 C         4.171070         0.181234         0.190657
 C         3.902364        -0.420901        -1.312024
 C         2.477188         0.290561        -1.288270
 C         3.070801         1.310910        -0.186860
 O         1.797446         1.217707         0.548012
 H        -0.242725        -0.005788        -1.408639
 H        -0.094443        -1.431271        -0.305720
 H        -0.433253         0.310755         0.387782
 H         1.650710        -1.035423         1.670277
 H         2.279667        -2.153258         0.354028
 H         5.203413         0.544185         0.436244
 H         4.417856         0.075833        -2.161058
 H         4.142174        -1.565505        -1.416495
 H         1.990766         0.680099        -2.081753
 H         3.518625         2.314792        -0.351375
