19
Iteration:  3629
 C         0.104178        -0.350960        -0.397255
 C         1.522784        -0.050952        -0.010925
 C         2.245558        -0.618709         1.217706
 O         3.651942        -0.140275         1.428775
 C         4.107589         0.246236         0.011295
 C         3.934936        -1.023441        -0.848755
 C         2.451316        -0.387896        -1.249313
 C         3.009475         1.115963        -0.756522
 O         1.875855         1.504013         0.059971
 H         0.155321        -1.220868        -1.076490
 H        -0.666881        -0.566764         0.401247
 H        -0.139559         0.667119        -0.842918
 H         1.700544        -0.364345         2.105475
 H         2.056971        -1.651093         1.365656
 H         5.124220         0.506306         0.038637
 H         4.345609        -0.906699        -1.767196
 H         3.978726        -2.021115        -0.405991
 H         1.989138        -0.606536        -2.235980
 H         3.468462         1.883455        -1.324042
