19
Iteration:  1096charge 0 multiplicity 1
 C         0.081221        -0.537311        -0.350999
 C         1.619639        -0.027855        -0.067808
 C         2.162474        -0.877029         1.048833
 O         3.634946        -0.662944         1.208945
 C         4.090351         0.123240         0.168337
 C         3.916264        -0.562238        -1.193820
 C         2.575059         0.230699        -1.322659
 C         3.064652         1.352338        -0.349438
 O         1.810789         1.386731         0.320195
 H        -0.714094         0.270774        -0.258835
 H        -0.098181        -1.082042        -1.244103
 H        -0.146996        -1.141696         0.545637
 H         1.728296        -0.702267         1.966273
 H         1.999308        -2.009569         0.872859
 H         5.030548         0.531054         0.505441
 H         4.534558        -0.057765        -2.060779
 H         3.999358        -1.754644        -1.309714
 H         1.960674         0.373343        -2.283055
 H         3.427029         2.255935        -0.713947
