19
Iteration:  1208
 C         0.073459        -0.472371        -0.241684
 C         1.559759        -0.035585        -0.159833
 C         2.184706        -0.872348         1.014049
 O         3.616461        -0.665336         1.208749
 C         4.080568         0.207263         0.161715
 C         3.977923        -0.553301        -1.150587
 C         2.608101         0.132537        -1.328632
 C         3.070111         1.219575        -0.347983
 O         1.785067         1.417678         0.304569
 H        -0.544929         0.249935         0.194443
 H        -0.438201        -0.572432        -1.292658
 H        -0.091294        -1.430227         0.201883
 H         1.710150        -0.608170         1.903420
 H         2.043785        -1.946954         0.699324
 H         4.990623         0.746724         0.553483
 H         4.592167        -0.225024        -2.015696
 H         4.122575        -1.739764        -1.081688
 H         1.987023         0.523356        -2.309710
 H         3.514482         2.138922        -0.755838
