19
Iteration:  3035
 C         0.069881        -0.291291        -0.409506
 C         1.514515        -0.108284        -0.027606
 C         2.295059        -0.948943         1.131615
 O         3.595161        -0.349398         1.296582
 C         4.121708         0.235489         0.116091
 C         3.852752        -0.817028        -1.035355
 C         2.503474        -0.037213        -1.284593
 C         3.085735         1.256342        -0.615127
 O         1.850198         1.375978         0.270373
 H        -0.254018         0.723916        -0.307338
 H        -0.057699        -0.595308        -1.423678
 H        -0.422263        -1.026646         0.302325
 H         1.761365        -0.806916         2.065637
 H         2.391739        -1.977882         0.920930
 H         5.111881         0.763815         0.320194
 H         4.443336        -0.601587        -1.939879
 H         3.967148        -1.783122        -0.468440
 H         2.017010        -0.030921        -2.254270
 H         3.560818         2.130059        -1.117583
