19
Iteration:  2686charge 0 multiplicity 1
 C         0.146001        -0.304270        -0.406633
 C         1.566315        -0.158908        -0.032245
 C         2.250012        -0.821356         1.159774
 O         3.633014        -0.547923         1.316034
 C         4.140808         0.208868         0.172907
 C         3.931789        -0.649208        -1.152978
 C         2.505698        -0.044429        -1.281475
 C         2.917499         1.235977        -0.553276
 O         1.827962         1.427731         0.256294
 H         0.040392        -0.342230        -1.504363
 H        -0.277136        -1.229781         0.077482
 H        -0.425936         0.597415        -0.093708
 H         1.639043        -0.489204         2.050590
 H         1.987142        -1.935614         0.857063
 H         5.237326         0.461084         0.359323
 H         4.481385        -0.155035        -1.987208
 H         4.179566        -1.778253        -0.939096
 H         1.849144        -0.230374        -2.123964
 H         3.381775         2.110845        -1.047621
