19
Iteration:  3441charge 0 multiplicity 1
 C         0.116443        -0.380182        -0.141464
 C         1.564621        -0.055050        -0.055598
 C         2.113500        -0.665692         1.157268
 O         3.544123        -0.218361         1.364918
 C         4.141746         0.182384         0.113499
 C         3.964061        -0.920493        -0.938671
 C         2.597317        -0.127597        -1.369609
 C         3.092499         1.075866        -0.630060
 O         1.834979         1.434366        -0.055457
 H        -0.423309         0.365899         0.590232
 H        -0.546396        -0.153508        -1.093203
 H        -0.241422        -1.366324         0.154849
 H         1.488054        -0.485637         2.068396
 H         2.044829        -1.762707         1.177613
 H         5.148119         0.592644         0.130589
 H         4.711436        -0.781609        -1.754462
 H         3.888343        -2.059196        -0.625695
 H         2.085600        -0.163229        -2.323537
 H         3.663365         1.745230        -1.235960
