19
Iteration:  1801charge 0 multiplicity 1
 C         0.051521        -0.433150        -0.272948
 C         1.556944        -0.050306        -0.123220
 C         2.162019        -0.765496         1.025019
 O         3.577618        -0.438487         1.329755
 C         4.146480         0.137434         0.187040
 C         3.933852        -0.665058        -1.051859
 C         2.563253        -0.010031        -1.295553
 C         3.076454         1.194343        -0.550916
 O         1.854308         1.410854         0.178635
 H        -0.501398         0.239512         0.438813
 H        -0.364270        -0.478937        -1.247804
 H        -0.124449        -1.472323         0.166967
 H         1.511221        -0.541262         2.012104
 H         2.266320        -1.787351         0.925952
 H         5.214568         0.534170         0.441520
 H         4.602630        -0.465641        -1.907941
 H         3.833940        -1.715275        -0.922813
 H         2.280519        -0.178237        -2.361450
 H         3.448657         2.107300        -1.018835
