19
Iteration:  4496
 C         0.051942        -0.356871        -0.136693
 C         1.602618        -0.008975        -0.065080
 C         2.092671        -0.148585         1.366129
 O         3.552368         0.238219         1.432592
 C         4.109387         0.190022         0.090871
 C         3.870749        -1.201474        -0.576658
 C         2.546955        -0.568921        -1.177543
 C         3.212374         0.811405        -0.966415
 O         1.895344         1.308044        -0.520986
 H        -0.363980        -0.372221         0.857977
 H        -0.501373         0.436410        -0.673753
 H        -0.090805        -1.271745        -0.670168
 H         1.597720         0.461319         2.196907
 H         1.930413        -1.295213         1.519657
 H         5.175755         0.586550         0.146046
 H         4.661391        -1.684294        -1.225290
 H         3.720256        -1.982792         0.207088
 H         2.088788        -0.977558        -2.033542
 H         3.744609         1.467472        -1.678223
