19
Iteration:   593
 C         0.149869        -0.351309        -0.286687
 C         1.584450        -0.067322        -0.120224
 C         2.207897        -1.059059         0.946715
 O         3.536920        -0.710311         1.128953
 C         4.080602         0.224679         0.200382
 C         4.005689        -0.404969        -1.183160
 C         2.544357         0.204670        -1.308694
 C         3.026239         1.297700        -0.300173
 O         1.781700         1.263603         0.392618
 H        -0.305866        -0.071352         0.747625
 H        -0.176338         0.249169        -1.088532
 H        -0.234453        -1.497043        -0.511723
 H         1.577701        -0.880640         1.822309
 H         2.130317        -2.040608         0.585947
 H         5.103303         0.549834         0.534353
 H         4.726886         0.179618        -1.769817
 H         4.281480        -1.477178        -1.639014
 H         2.069622         0.425107        -2.247160
 H         3.499771         2.253969        -0.481313
