19
Iteration:  4436
 C         0.070305        -0.310647        -0.240964
 C         1.561178        -0.117036        -0.040336
 C         2.199806        -0.267493         1.361144
 O         3.512176         0.328498         1.367734
 C         4.109215         0.169764         0.134578
 C         3.873109        -1.204940        -0.641085
 C         2.572710        -0.601389        -1.094985
 C         3.111682         0.808998        -0.946698
 O         1.944969         1.396167        -0.390313
 H        -0.357846         0.624043        -0.606061
 H        -0.178516        -1.142268        -0.893853
 H        -0.440240        -0.478527         0.739219
 H         1.518236         0.305599         2.078874
 H         2.133231        -1.402581         1.565456
 H         5.064731         0.590245         0.264226
 H         4.554443        -1.250363        -1.530774
 H         3.784788        -2.160312        -0.091025
 H         2.019707        -0.934630        -2.056442
 H         3.579694         1.236932        -1.832399
