19
Iteration:  4605
 C         0.093772        -0.282622        -0.143608
 C         1.602861        -0.052928        -0.060760
 C         2.079943        -0.102193         1.406422
 O         3.452800         0.363673         1.395736
 C         4.099614         0.138727         0.092772
 C         3.934064        -1.263316        -0.506977
 C         2.586261        -0.690369        -1.091931
 C         3.120694         0.757988        -1.087889
 O         1.968378         1.332298        -0.562193
 H        -0.390009        -0.033739        -1.032093
 H        -0.043682        -1.311317         0.171983
 H        -0.427653         0.173975         0.653512
 H         1.522164         0.639560         2.055476
 H         1.907799        -1.023965         1.926242
 H         5.167937         0.466582         0.174276
 H         4.706669        -1.479704        -1.329621
 H         3.753050        -2.002700         0.308785
 H         2.227201        -1.168639        -1.965062
 H         3.596866         1.249540        -1.952542
