19
Iteration:   840
 C         0.105230        -0.396140        -0.231460
 C         1.584037        -0.061030        -0.146740
 C         2.176330        -0.998763         0.971583
 O         3.525867        -0.639460         1.211082
 C         4.087146         0.225977         0.198964
 C         3.975240        -0.523713        -1.182621
 C         2.574975         0.163271        -1.326342
 C         3.074010         1.279460        -0.407789
 O         1.831884         1.321194         0.315988
 H        -0.449300        -0.009644        -1.064605
 H         0.097078        -1.556557        -0.289495
 H        -0.346645         0.058290         0.687178
 H         1.550860        -0.760360         1.757087
 H         1.941347        -2.105253         0.846446
 H         4.957565         0.614957         0.782750
 H         4.624212         0.264587        -1.825454
 H         4.289387        -1.589475        -1.239462
 H         2.167499         0.279535        -2.215725
 H         3.483058         2.306899        -0.708611
