19
Iteration:  3943
 C         0.122404        -0.380115        -0.218435
 C         1.580098        -0.069237        -0.103745
 C         2.199142        -0.630263         1.241898
 O         3.552090         0.038955         1.427210
 C         4.062945         0.109291         0.122020
 C         3.792186        -1.029534        -0.916935
 C         2.576883        -0.242122        -1.379999
 C         3.095960         1.083875        -0.777208
 O         1.950729         1.377038         0.029265
 H         0.056626        -0.650094        -1.271400
 H        -0.207586        -1.157908         0.523923
 H        -0.596718         0.469625        -0.152316
 H         1.630841        -0.197630         2.084941
 H         2.237441        -1.685362         1.276874
 H         5.101155         0.421225         0.172022
 H         4.511858        -0.953598        -1.732480
 H         3.584203        -1.970223        -0.490700
 H         1.996381        -0.279663        -2.314493
 H         3.453961         1.946367        -1.341986
