19
Iteration:  1490charge 0 multiplicity 1
 C         0.091226        -0.373223        -0.373705
 C         1.570859        -0.065593        -0.126712
 C         2.183787        -0.873955         1.140623
 O         3.572395        -0.330270         1.365815
 C         4.142545         0.217435         0.141512
 C         3.905640        -0.730213        -1.168164
 C         2.544521         0.009420        -1.305775
 C         3.020785         1.191060        -0.520167
 O         1.870789         1.292442         0.272429
 H        -0.085105        -0.011610        -1.463176
 H        -0.218743        -1.441727        -0.174666
 H        -0.316886         0.361051         0.309851
 H         1.474015        -0.827966         2.105495
 H         2.242858        -1.898108         0.803312
 H         5.125838         0.572808         0.473077
 H         4.601196        -0.478947        -1.952464
 H         3.922753        -1.847946        -1.128281
 H         2.109717         0.211208        -2.184165
 H         3.504690         2.155935        -0.775180
