19
Iteration:  2149
 C         0.187688        -0.394752        -0.290874
 C         1.609643        -0.067827        -0.128982
 C         2.283215        -0.915832         0.989831
 O         3.430471        -0.199920         1.373867
 C         4.096680         0.164111         0.127637
 C         3.821093        -0.789663        -1.045819
 C         2.525557        -0.054077        -1.326114
 C         3.105344         1.183733        -0.507791
 O         1.866548         1.422996         0.218732
 H        -0.285106        -0.023937         0.626498
 H        -0.227934         0.151109        -1.130570
 H        -0.071942        -1.404359        -0.255487
 H         1.717644        -1.003802         1.977737
 H         2.536137        -1.885078         0.684675
 H         5.095884         0.299824         0.565198
 H         4.596093        -0.659511        -1.790709
 H         3.614942        -1.909289        -0.904640
 H         2.326091        -0.050099        -2.414184
 H         3.354636         2.108368        -0.980935
