19
Iteration:  2070charge 0 multiplicity 1
 C         0.006139        -0.378138        -0.311688
 C         1.554887        -0.079660        -0.039491
 C         2.136825        -0.725191         1.218690
 O         3.620081        -0.460852         1.293281
 C         4.126449         0.155308         0.167435
 C         4.046374        -0.667446        -1.050945
 C         2.575018        -0.054188        -1.367252
 C         3.059363         1.154188        -0.577226
 O         1.836918         1.394793         0.105969
 H        -0.440973        -0.559475         0.662716
 H        -0.511587         0.448009        -0.757844
 H         0.179487        -1.349507        -0.900510
 H         1.424949        -0.321222         2.224278
 H         1.786324        -1.775840         1.181194
 H         5.070500         0.490097         0.552924
 H         4.574223        -0.257216        -1.893826
 H         4.098773        -1.810673        -1.047392
 H         1.985667        -0.110229        -2.291297
 H         3.429209         2.132075        -0.924611
