19
Iteration:  2995
 C         0.097066        -0.426805        -0.257897
 C         1.608371        -0.057047        -0.142044
 C         2.277664        -0.832948         1.090973
 O         3.502710        -0.286145         1.363025
 C         4.057372         0.115431         0.079536
 C         3.866786        -0.781195        -1.115415
 C         2.521883         0.049095        -1.342527
 C         3.164911         1.166959        -0.522297
 O         1.869201         1.398126         0.274505
 H        -0.606682         0.474299        -0.455719
 H        -0.019612        -1.061148        -1.140321
 H        -0.382481        -0.872450         0.621259
 H         1.533318        -0.608233         1.911965
 H         2.254687        -2.050934         1.049683
 H         5.033287         0.347659         0.403888
 H         4.482488        -0.385697        -1.954024
 H         3.897714        -1.874743        -1.080303
 H         2.240754         0.021152        -2.421497
 H         3.453222         2.112245        -0.942161
