19
Iteration:  2315charge 0 multiplicity 1
 C         0.063026        -0.290687        -0.308728
 C         1.510122        -0.154917        -0.062639
 C         2.185775        -0.727613         1.166524
 O         3.551048        -0.398148         1.305460
 C         4.081004         0.203121         0.137134
 C         4.018759        -0.749101        -1.139874
 C         2.585724        -0.120981        -1.285972
 C         3.088309         1.163523        -0.510016
 O         1.814017         1.372229         0.155630
 H        -0.253735        -0.941641         0.526300
 H        -0.341100         0.749067        -0.316603
 H        -0.152839        -0.859373        -1.145295
 H         1.581832        -0.415620         2.155797
 H         2.095969        -1.845053         0.867669
 H         5.108778         0.648228         0.448750
 H         4.654725        -0.246995        -1.826701
 H         4.409331        -1.773831        -1.041842
 H         2.231550        -0.209324        -2.362101
 H         3.391713         2.114899        -0.968411
