19
Iteration:  4473charge 0 multiplicity 1
 C         0.089536        -0.318826        -0.165200
 C         1.638976        -0.061653        -0.087491
 C         2.135072        -0.163339         1.308553
 O         3.510154         0.169152         1.372752
 C         4.095936         0.166804         0.158964
 C         3.872086        -1.173756        -0.542090
 C         2.596178        -0.603105        -1.103959
 C         3.038323         0.821232        -1.025985
 O         1.917690         1.414785        -0.440459
 H        -0.439092         0.327204         0.540472
 H        -0.303495        -0.136166        -1.143724
 H        -0.028592        -1.352570        -0.022520
 H         1.732878         0.632461         2.055660
 H         1.987928        -1.239686         1.768464
 H         5.212623         0.454815         0.182633
 H         4.731696        -1.367141        -1.330867
 H         3.947144        -2.135849         0.020299
 H         2.230364        -1.164516        -1.958447
 H         3.452016         1.338150        -1.891147
