19
Iteration:  4851
 C         0.034347        -0.239033        -0.069555
 C         1.561580        -0.040362        -0.080614
 C         2.082950         0.033981         1.365704
 O         3.460963         0.465672         1.297723
 C         4.107013         0.202864         0.059307
 C         3.864740        -1.276555        -0.253689
 C         2.563955        -0.840317        -0.954679
 C         3.240946         0.675616        -1.100610
 O         2.003242         1.204936        -0.763698
 H        -0.430069         0.701051        -0.404879
 H        -0.312547        -1.055289        -0.658077
 H        -0.364883        -0.343360         0.913052
 H         1.604645         0.796204         1.938890
 H         2.012037        -0.934149         1.897578
 H         5.130109         0.632728         0.213889
 H         4.572886        -1.611690        -1.063092
 H         3.987867        -2.095980         0.569019
 H         2.113965        -1.326644        -1.851134
 H         3.758308         1.019344        -2.053921
