19
Iteration:  3315
 C         0.040909        -0.389210        -0.131968
 C         1.530685        -0.027817        -0.075085
 C         2.154625        -0.682458         1.089385
 O         3.512878        -0.319032         1.321327
 C         4.192486         0.140499         0.182431
 C         3.933613        -0.773446        -1.068450
 C         2.557414        -0.132916        -1.280270
 C         3.111111         1.159331        -0.695031
 O         1.893494         1.351621         0.087951
 H        -0.252804        -1.018289        -0.985576
 H        -0.299416        -1.012987         0.748364
 H        -0.569478         0.604348        -0.169819
 H         1.615219        -0.246071         1.961458
 H         2.119236        -1.787693         0.940357
 H         5.107770         0.753370         0.434937
 H         4.883623        -0.565014        -1.652911
 H         3.911917        -1.825035        -0.837013
 H         2.136010        -0.341394        -2.349744
 H         3.559984         2.080311        -1.222990
