19
Iteration:  1269charge 0 multiplicity 1
 C         0.100902        -0.310829        -0.419573
 C         1.615082        -0.073371        -0.080907
 C         2.305714        -0.955247         0.928141
 O         3.561884        -0.376813         1.307509
 C         4.132059         0.195728         0.134186
 C         3.824939        -0.709790        -1.108035
 C         2.504522         0.092659        -1.294011
 C         3.007300         1.263506        -0.430511
 O         1.847855         1.249688         0.403657
 H        -0.565942        -0.456856         0.561447
 H        -0.193350         0.603643        -0.968950
 H         0.055685        -1.152722        -1.213820
 H         1.785766        -1.110329         2.015726
 H         2.497444        -1.973255         0.537911
 H         5.136917         0.578618         0.297532
 H         4.600801        -0.420344        -1.843172
 H         3.904421        -1.734356        -0.832478
 H         1.969721         0.065726        -2.293947
 H         3.328511         2.290020        -0.708999
