19
Iteration:  1205charge 0 multiplicity 1
 C         0.066683        -0.459627        -0.254329
 C         1.578921        -0.054833        -0.129785
 C         2.178376        -0.881916         1.004666
 O         3.627442        -0.673589         1.206774
 C         4.071978         0.222563         0.176643
 C         4.024948        -0.575074        -1.136914
 C         2.566267         0.141273        -1.335562
 C         3.065592         1.251684        -0.359734
 O         1.790476         1.410148         0.285689
 H        -0.569431         0.325600         0.216393
 H        -0.447753        -0.605964        -1.117788
 H        -0.148207        -1.410026         0.232952
 H         1.648237        -0.646967         1.887947
 H         2.086176        -1.928051         0.645714
 H         4.948788         0.703689         0.601448
 H         4.638099        -0.267277        -2.025284
 H         4.059799        -1.684778        -1.137258
 H         1.940853         0.547504        -2.384793
 H         3.491839         2.135117        -0.705087
