19
Iteration:   622
 C         0.048714        -0.380734        -0.389014
 C         1.537319        -0.036187        -0.081890
 C         2.258497        -1.109601         0.890519
 O         3.578530        -0.571889         1.206702
 C         4.123904         0.273945         0.177896
 C         3.927905        -0.554609        -1.179848
 C         2.582807         0.234489        -1.296927
 C         3.038764         1.295176        -0.321270
 O         1.816862         1.261028         0.487743
 H        -0.344382        -0.779020         0.491881
 H        -0.490071         0.572302        -0.566816
 H        -0.076852        -0.963637        -1.252672
 H         1.608702        -1.359178         1.862214
 H         2.412662        -2.081781         0.280864
 H         5.148199         0.623678         0.411464
 H         4.644404        -0.223997        -1.933824
 H         3.814144        -1.615490        -1.250017
 H         2.225064         0.557192        -2.414786
 H         3.479420         2.257161        -0.647855
