19
Iteration:  4730charge 0 multiplicity 1
 C         0.113411        -0.220368        -0.133731
 C         1.604586        -0.041110        -0.072744
 C         2.158266        -0.041357         1.409645
 O         3.514491         0.401948         1.391853
 C         4.051039         0.213145         0.120705
 C         3.852023        -1.249816        -0.377697
 C         2.575250        -0.857468        -1.065822
 C         3.158559         0.684147        -1.136970
 O         1.914292         1.320272        -0.689137
 H        -0.320394        -1.063504         0.485861
 H        -0.405405         0.654737         0.245401
 H        -0.235176        -0.458454        -1.163457
 H         1.565983         0.633878         1.975965
 H         2.099191        -1.037801         1.846620
 H         5.106161         0.547852         0.240852
 H         4.686876        -1.595702        -1.018115
 H         3.801091        -2.084634         0.444582
 H         2.118931        -1.698673        -1.651344
 H         3.530957         1.411058        -1.931658
