19
Iteration:  1194
 C         0.053349        -0.399727        -0.221851
 C         1.561863        -0.076727        -0.080129
 C         2.206196        -0.960836         0.968388
 O         3.586244        -0.658134         1.210483
 C         4.106168         0.227001         0.227692
 C         4.064446        -0.579283        -1.156930
 C         2.532465         0.179048        -1.316624
 C         3.020075         1.328117        -0.450281
 O         1.791117         1.352789         0.252691
 H        -0.429429         0.480589         0.264488
 H        -0.151489        -0.516893        -1.211535
 H        -0.167023        -1.221712         0.446932
 H         1.661302        -0.903820         1.868111
 H         2.075275        -2.037917         0.709405
 H         5.093111         0.543281         0.556168
 H         4.866025        -0.240076        -1.878242
 H         3.986624        -1.673535        -1.021718
 H         2.029733         0.256515        -2.493267
 H         3.425772         2.271485        -0.624096
