19
Iteration:   300charge 0 multiplicity 1
 C         0.061668        -0.305363        -0.374386
 C         1.565834        -0.102429        -0.190192
 C         2.250808        -1.144333         0.710294
 O         3.648291        -0.675130         1.120283
 C         4.146082         0.197502         0.164811
 C         3.910782        -0.351142        -1.210792
 C         2.552570         0.292858        -1.282630
 C         2.976822         1.326300        -0.128835
 O         1.796325         1.167667         0.627444
 H        -0.181103        -0.783111         0.619944
 H        -0.485432         0.568134        -0.364834
 H        -0.124104        -0.897916        -1.339077
 H         1.614195        -1.373421         1.641061
 H         2.343219        -2.064460         0.150852
 H         5.161030         0.526042         0.604700
 H         4.492960         0.218225        -1.831631
 H         4.000232        -1.429958        -1.415493
 H         2.189856         0.664646        -2.337385
 H         3.264756         2.404817        -0.268437
