19
Iteration:  1033charge 0 multiplicity 1
 C         0.125869        -0.262028        -0.412814
 C         1.623446        -0.167666        -0.068614
 C         2.292472        -1.135222         0.942288
 O         3.596876        -0.438484         1.226590
 C         4.134308         0.255505         0.144878
 C         3.851026        -0.576651        -1.173889
 C         2.513524         0.157156        -1.268632
 C         2.974348         1.250614        -0.382901
 O         1.821191         1.268815         0.452083
 H        -0.110573         0.349509        -1.385046
 H        -0.315714        -1.335278        -0.570300
 H        -0.422935         0.290171         0.376084
 H         1.747302        -1.353558         2.019810
 H         2.447864        -2.091532         0.412048
 H         5.131360         0.659440         0.417852
 H         4.534465        -0.288767        -1.927545
 H         3.806711        -1.654972        -0.937135
 H         2.057560         0.245879        -2.244206
 H         3.220085         2.317562        -0.702581
