19
Iteration:   794charge 0 multiplicity 1
 C         0.155068        -0.355956        -0.420009
 C         1.596401        -0.114740        -0.116961
 C         2.242877        -0.999354         0.949480
 O         3.642965        -0.538602         1.263619
 C         4.063370         0.181912         0.160750
 C         3.864366        -0.522941        -1.154124
 C         2.517716         0.159287        -1.295192
 C         3.020445         1.268127        -0.336307
 O         1.814075         1.314046         0.422937
 H         0.022231        -0.434537        -1.508380
 H        -0.031832        -1.378441        -0.007881
 H        -0.502050         0.396358        -0.050909
 H         1.620306        -0.870736         1.762409
 H         2.154312        -2.087601         0.662083
 H         5.126793         0.342537         0.326804
 H         4.575550        -0.151992        -2.020471
 H         3.669819        -1.589104        -1.095378
 H         2.077281         0.369059        -2.167190
 H         3.417511         2.286571        -0.654460
