19
Iteration:   932charge 0 multiplicity 1
 C         0.147107        -0.446209        -0.363269
 C         1.566855        -0.139064        -0.021864
 C         2.188827        -0.901581         1.002053
 O         3.588002        -0.628581         1.209732
 C         4.137075         0.208324         0.159146
 C         3.917572        -0.512893        -1.188030
 C         2.543389         0.182235        -1.297260
 C         3.076886         1.281905        -0.348050
 O         1.797748         1.354859         0.309240
 H        -0.461653         0.482599        -0.821877
 H         0.061031        -1.277781        -1.065597
 H        -0.438258        -0.660861         0.607127
 H         1.622055        -0.716489         2.022779
 H         2.031829        -1.973338         0.904122
 H         5.158296         0.466088         0.351412
 H         4.509702        -0.222055        -2.058585
 H         3.782907        -1.650058        -1.179633
 H         2.073408         0.313406        -2.242952
 H         3.522445         2.229167        -0.458098
