19
Iteration:  3792
 C         0.149524        -0.403361        -0.163688
 C         1.601710         0.029937        -0.113687
 C         2.152448        -0.631431         1.215417
 O         3.569980        -0.220863         1.418357
 C         4.036504         0.171185         0.099743
 C         3.878681        -0.941400        -0.949338
 C         2.606092        -0.273024        -1.346656
 C         3.100115         1.086885        -0.686920
 O         1.841877         1.520646        -0.037949
 H        -0.026436        -0.906346         0.804834
 H        -0.538770         0.456364        -0.028101
 H        -0.186745        -0.850915        -1.166124
 H         1.498634        -0.611024         2.121873
 H         2.053543        -1.694196         0.975244
 H         4.972365         0.556218         0.308003
 H         4.595306        -0.869363        -1.931430
 H         3.928356        -1.996630        -0.518440
 H         2.110635        -0.350663        -2.333890
 H         3.667674         1.707704        -1.310124
