19
Iteration:  2945charge 0 multiplicity 1
 C         0.144797        -0.349373        -0.293635
 C         1.573543        -0.144919        -0.073599
 C         2.151191        -0.779335         1.109788
 O         3.657259        -0.573790         1.151498
 C         4.075203         0.240303         0.183131
 C         3.966358        -0.675073        -1.071375
 C         2.505954        -0.074747        -1.274787
 C         2.978560         1.157809        -0.493517
 O         1.851178         1.504482         0.197428
 H        -0.237699         0.058432        -1.223490
 H        -0.186403        -1.426753        -0.235908
 H        -0.337203         0.205664         0.494217
 H         1.724369        -0.399856         2.045228
 H         2.012368        -1.846454         1.218835
 H         5.040339         0.701717         0.498011
 H         4.613178        -0.274303        -1.871488
 H         4.069421        -1.687854        -0.664028
 H         2.036696        -0.153908        -2.276981
 H         3.349220         2.120885        -0.933824
