19
Iteration:   604
 C         0.105344        -0.338037        -0.285607
 C         1.596581        -0.097594        -0.110810
 C         2.218765        -1.011372         0.814929
 O         3.565780        -0.674639         1.198476
 C         4.106607         0.172844         0.182627
 C         4.046732        -0.438905        -1.225038
 C         2.551450         0.190665        -1.318088
 C         2.987364         1.303059        -0.271399
 O         1.772037         1.301546         0.440266
 H        -0.479344        -0.347626         0.719447
 H        -0.374291         0.431860        -0.830108
 H         0.047375        -1.384486        -0.873303
 H         1.668512        -0.939633         1.782745
 H         2.131387        -2.024197         0.523747
 H         5.071256         0.548514         0.607714
 H         4.638027         0.080279        -1.977835
 H         4.158360        -1.618880        -1.103196
 H         2.019672         0.245675        -2.258325
 H         3.323021         2.290276        -0.573097
