19
Iteration:  2291
 C         0.136467        -0.353581        -0.250298
 C         1.561883        -0.080291        -0.069867
 C         2.215333        -0.884358         1.059910
 O         3.503246        -0.331096         1.405737
 C         4.073929         0.177647         0.149341
 C         3.886281        -0.719235        -1.017483
 C         2.533761        -0.017445        -1.371696
 C         3.113955         1.253318        -0.606513
 O         1.891330         1.359679         0.143882
 H        -0.279715        -0.948664         0.619742
 H        -0.312092         0.639212        -0.505155
 H         0.066506        -1.110308        -1.080087
 H         1.588685        -0.834424         2.080826
 H         2.423531        -1.962618         0.677548
 H         5.085964         0.525954         0.377680
 H         4.571855        -0.763507        -1.766543
 H         3.677031        -1.783846        -0.717359
 H         2.171798        -0.187315        -2.406207
 H         3.396594         2.152663        -1.120379
