19
Iteration:  2823charge 0 multiplicity 1
 C         0.070407        -0.384873        -0.349273
 C         1.596175        -0.096992        -0.005147
 C         2.178934        -0.757867         1.254730
 O         3.552052        -0.479477         1.286551
 C         4.048765         0.134220         0.141707
 C         4.003871        -0.645347        -1.210902
 C         2.599419        -0.097131        -1.335470
 C         3.002623         1.250976        -0.511557
 O         1.870428         1.371455         0.195594
 H        -0.170495         0.497373        -0.984090
 H        -0.305408        -1.295062        -0.760535
 H        -0.494903        -0.258351         0.516662
 H         1.842942        -0.196827         2.148571
 H         1.962571        -1.924256         1.464531
 H         5.043574         0.336236         0.386062
 H         4.624601         0.033497        -1.847184
 H         4.302591        -1.653343        -1.285397
 H         2.043406        -0.011737        -2.323923
 H         3.353570         2.047060        -1.164305
