19
Iteration:  2698
 C         0.111085        -0.305817        -0.382474
 C         1.590221        -0.069556        -0.000812
 C         2.215740        -0.843432         1.156511
 O         3.639782        -0.558272         1.175066
 C         4.092001         0.186464         0.105491
 C         3.946453        -0.624616        -1.062892
 C         2.528157        -0.136318        -1.212503
 C         3.055286         1.267878        -0.524094
 O         1.722746         1.425320         0.232735
 H         0.074825        -0.252954        -1.444122
 H        -0.371760        -1.239643        -0.126976
 H        -0.492230         0.547729         0.069572
 H         1.812479        -0.554595         2.190730
 H         2.243215        -2.021991         1.211312
 H         5.096994         0.626457         0.501491
 H         4.564787        -0.346024        -1.920391
 H         4.157153        -1.759489        -0.974278
 H         2.206202        -0.076429        -2.254179
 H         3.400671         2.193875        -1.056365
