19
Iteration:  2909charge 0 multiplicity 1
 C         0.094831        -0.303831        -0.317264
 C         1.551356        -0.137012        -0.069874
 C         2.191589        -0.915107         1.133922
 O         3.559428        -0.240950         1.293665
 C         4.120822         0.097578         0.107159
 C         3.934594        -0.699051        -1.149430
 C         2.535281        -0.025046        -1.357212
 C         3.029163         1.214534        -0.475629
 O         1.888218         1.314610         0.310973
 H        -0.059063        -0.361874        -1.442442
 H        -0.282441        -1.224022         0.130248
 H        -0.433441         0.573871         0.047716
 H         1.634261        -0.780495         2.068169
 H         2.291902        -1.874450         0.857826
 H         5.103077         0.409157         0.351507
 H         4.657380        -0.402484        -1.940764
 H         4.058764        -1.754806        -1.335969
 H         1.896706        -0.036050        -2.301686
 H         3.442957         2.178559        -0.889046
