19
Iteration:  1792
 C         0.070390        -0.422227        -0.311498
 C         1.581908        -0.009062        -0.077831
 C         2.239013        -0.845731         1.016063
 O         3.570653        -0.366441         1.356533
 C         4.121417         0.198531         0.184713
 C         3.863699        -0.762204        -1.072621
 C         2.571697         0.007565        -1.322880
 C         3.046332         1.199294        -0.519099
 O         1.854630         1.374927         0.191346
 H        -0.572968         0.377879         0.276640
 H        -0.140684        -0.312841        -1.362257
 H        -0.010475        -1.363258         0.231124
 H         1.455201        -0.652967         1.936359
 H         2.251548        -1.942960         0.756946
 H         5.159890         0.455287         0.496403
 H         4.698019        -0.614616        -1.907965
 H         3.933084        -1.854078        -0.904699
 H         2.006486         0.007296        -2.217364
 H         3.446214         2.064254        -1.158639
