19
Iteration:   126
 C         0.249504        -0.398543        -0.478519
 C         1.607413        -0.103623        -0.037831
 C         2.298288        -1.165061         0.870608
 O         3.628511        -0.748928         1.134884
 C         4.030969         0.187409         0.084546
 C         3.805797        -0.306219        -1.312142
 C         2.494588         0.437986        -1.339162
 C         2.958835         1.335477        -0.130692
 O         1.813306         1.216853         0.666625
 H        -0.339419        -0.928504         0.340663
 H        -0.058540         0.572064        -0.811879
 H         0.261593        -1.082288        -1.409868
 H         1.776877        -1.267318         1.901731
 H         2.229728        -2.159586         0.406271
 H         5.062712         0.446674         0.435137
 H         4.631024        -0.067662        -2.053806
 H         3.808351        -1.470007        -1.396316
 H         1.873394         0.907945        -2.181682
 H         3.302776         2.390205        -0.249331
