19
Iteration:   702
 C         0.098749        -0.392308        -0.264592
 C         1.571303        -0.024166        -0.087421
 C         2.197381        -0.930194         0.894172
 O         3.587775        -0.727046         1.145597
 C         4.082630         0.203363         0.234923
 C         4.038702        -0.514063        -1.223234
 C         2.594716         0.155662        -1.243359
 C         2.983149         1.328044        -0.361558
 O         1.770744         1.318722         0.357770
 H         0.018352        -1.427706        -0.669728
 H        -0.408388        -0.328619         0.612261
 H        -0.377589         0.227254        -1.073104
 H         1.545223        -0.755190         1.899096
 H         2.130609        -2.058569         0.733981
 H         5.079375         0.551996         0.585049
 H         4.724893        -0.012347        -1.861126
 H         4.177085        -1.637089        -1.132706
 H         2.054597         0.507717        -2.264677
 H         3.481897         2.229266        -0.596579
