19
Iteration:   877
 C         0.079568        -0.258052        -0.411349
 C         1.548560        -0.128056        -0.052474
 C         2.335605        -1.124891         0.905450
 O         3.548426        -0.416221         1.262403
 C         4.111256         0.254418         0.158270
 C         3.916447        -0.675128        -1.125429
 C         2.526597         0.128566        -1.270305
 C         3.058854         1.322579        -0.407605
 O         1.797705         1.267498         0.407926
 H        -0.311809         0.717396        -0.926426
 H        -0.145120        -1.130892        -1.031574
 H        -0.525782        -0.531826         0.514082
 H         1.825268        -1.175122         1.970796
 H         2.574467        -2.066024         0.537083
 H         5.166366         0.462086         0.328611
 H         4.464875        -0.416785        -1.962924
 H         3.969757        -1.790319        -1.161503
 H         2.146665         0.449721        -2.279886
 H         3.335761         2.314803        -0.590343
