19
Iteration:  3305charge 0 multiplicity 1
 C         0.029763        -0.340467        -0.189114
 C         1.552746        -0.026929        -0.088915
 C         2.134929        -0.758117         1.148132
 O         3.622144        -0.360589         1.321761
 C         4.090223         0.246364         0.156359
 C         3.939794        -0.786791        -0.977757
 C         2.563978        -0.179899        -1.324456
 C         3.089983         1.141563        -0.682154
 O         1.874078         1.403652         0.081713
 H        -0.144555        -1.032436        -1.034120
 H        -0.220513        -0.731402         0.820423
 H        -0.640050         0.620578        -0.340338
 H         1.660549        -0.552943         2.136550
 H         2.161128        -1.856837         1.065153
 H         5.123549         0.676154         0.465287
 H         4.519830        -0.644600        -1.994930
 H         4.066612        -1.847865        -0.781454
 H         2.101680        -0.186236        -2.386390
 H         3.580718         2.010116        -1.242232
