19
Iteration:  1893
 C         0.143680        -0.341103        -0.363933
 C         1.608980        -0.077613        -0.102091
 C         2.277988        -0.901804         1.023565
 O         3.482647        -0.182177         1.375371
 C         4.072737         0.148059         0.094129
 C         3.832977        -0.846257        -1.006183
 C         2.543742        -0.042981        -1.273677
 C         3.027073         1.263195        -0.621419
 O         1.908306         1.327678         0.310476
 H        -0.358802        -0.690367         0.539562
 H        -0.133252         0.590650        -0.940799
 H         0.246909        -1.125144        -1.137380
 H         1.653254        -0.809658         2.005035
 H         2.453362        -1.931685         0.778340
 H         4.991451         0.551237         0.304097
 H         4.608021        -0.839121        -1.848200
 H         3.670896        -1.958394        -0.780445
 H         2.055800        -0.105968        -2.200442
 H         3.432033         2.269770        -1.018062
