19
Iteration:   387
 C         0.211947        -0.388977        -0.446186
 C         1.648649        -0.125109        -0.100392
 C         2.314980        -1.187124         0.785279
 O         3.536755        -0.637889         1.200186
 C         4.115116         0.171326         0.082464
 C         3.769092        -0.420876        -1.249480
 C         2.487087         0.419251        -1.279776
 C         3.053655         1.467094        -0.161670
 O         1.820638         1.160127         0.625206
 H        -0.033229        -1.491666        -0.471922
 H        -0.451070         0.195523         0.067367
 H        -0.075816         0.000575        -1.530980
 H         1.638627        -1.256374         1.646063
 H         2.438871        -2.206671         0.481051
 H         5.206806         0.453451         0.417229
 H         4.442233        -0.293487        -2.021907
 H         3.564843        -1.526559        -1.212108
 H         1.895009         0.683230        -2.244683
 H         3.413738         2.539099        -0.211710
