19
Iteration:   714
 C         0.141419        -0.386847        -0.236965
 C         1.568594        -0.076602        -0.056924
 C         2.184345        -0.996027         0.981039
 O         3.541461        -0.687452         1.159889
 C         4.056742         0.200467         0.167081
 C         4.056909        -0.455907        -1.159591
 C         2.619755         0.184112        -1.413026
 C         3.033555         1.245921        -0.331156
 O         1.746193         1.371152         0.351224
 H        -0.010696        -1.283326        -0.895471
 H        -0.340618        -0.542296         0.686574
 H        -0.314881         0.535510        -0.665655
 H         1.712429        -0.922851         2.048625
 H         1.979655        -1.992822         0.461266
 H         4.973943         0.555162         0.629820
 H         4.729740        -0.122701        -1.946211
 H         4.126110        -1.593429        -1.220010
 H         2.165562         0.302417        -2.469169
 H         3.401350         2.225617        -0.538455
