19
Iteration:  2409charge 0 multiplicity 1
 C         0.110711        -0.379754        -0.242895
 C         1.522044        -0.103747        -0.153506
 C         2.234543        -0.847723         1.089479
 O         3.491861        -0.278198         1.343336
 C         4.085457         0.193803         0.134192
 C         3.862401        -0.812697        -1.008876
 C         2.553744        -0.000540        -1.396529
 C         3.131717         1.267715        -0.545831
 O         1.943928         1.337383         0.248204
 H        -0.322874        -0.873762         0.667256
 H        -0.605685         0.374204        -0.649730
 H         0.076152        -1.156923        -1.078659
 H         1.507472        -0.608865         1.830382
 H         2.333013        -1.948591         0.896556
 H         5.048876         0.535870         0.314957
 H         4.629419        -0.574021        -1.893157
 H         3.730617        -1.941330        -1.061518
 H         2.002519        -0.015304        -2.309912
 H         3.586613         2.153125        -1.014659
