19
Iteration:  2308
 C         0.094918        -0.301084        -0.286593
 C         1.580464        -0.109601        -0.090649
 C         2.202937        -0.824422         1.138040
 O         3.551616        -0.369706         1.336565
 C         4.101916         0.239374         0.202504
 C         3.950519        -0.776800        -1.134822
 C         2.593017        -0.093293        -1.280388
 C         3.042830         1.126768        -0.585556
 O         1.824059         1.392172         0.152191
 H        -0.328584        -0.887634         0.519900
 H        -0.355567         0.666823        -0.313795
 H        -0.232284        -0.938225        -1.158845
 H         1.547958        -0.547643         1.883544
 H         1.966781        -1.869579         0.962629
 H         5.062234         0.659308         0.502822
 H         4.698824        -0.190445        -1.864228
 H         4.248623        -1.809360        -0.978474
 H         2.055772         0.044244        -2.227522
 H         3.490311         2.068441        -1.023761
