19
Iteration:  2983
 C         0.069020        -0.434591        -0.235215
 C         1.543218        -0.109116        -0.095185
 C         2.156678        -0.801792         1.106950
 O         3.550206        -0.368183         1.368569
 C         4.163097         0.127076         0.178537
 C         3.865783        -0.690508        -1.194312
 C         2.579940         0.006846        -1.351283
 C         3.074266         1.204108        -0.502607
 O         1.896634         1.403983         0.154961
 H        -0.456002         0.505728        -0.561137
 H        -0.102682        -1.249054        -0.917180
 H        -0.264117        -0.814374         0.775531
 H         1.630762        -0.465275         2.043858
 H         2.159497        -1.999520         0.938785
 H         5.210221         0.439507         0.296911
 H         4.672428        -0.450503        -1.903717
 H         3.892403        -1.806858        -1.163685
 H         1.995454         0.308037        -2.209228
 H         3.652051         2.027065        -0.886698
