19
Iteration:     9charge 0 multiplicity 1
 C         0.073743        -0.375736        -0.382002
 C         1.553393        -0.095314        -0.066460
 C         2.279085        -1.163460         0.727942
 O         3.573063        -0.659007         1.160375
 C         4.142459         0.194733         0.130919
 C         3.945214        -0.281692        -1.303894
 C         2.502179         0.380106        -1.294317
 C         3.019738         1.344837        -0.166035
 O         1.819366         1.108739         0.672694
 H        -0.583990        -0.357765         0.579193
 H        -0.435334         0.663225        -1.063437
 H        -0.038678        -1.297842        -0.864948
 H         1.924627        -1.587931         1.672253
 H         2.507794        -2.059096        -0.118891
 H         5.168365         0.493224         0.367646
 H         4.621720         0.130611        -2.094993
 H         3.907017        -1.299990        -1.392205
 H         2.057713         0.334778        -2.270075
 H         3.364103         2.419868        -0.207645
