19
Iteration:  1656
 C         0.175410        -0.389980        -0.372879
 C         1.545686        -0.055123        -0.060212
 C         2.226350        -0.796383         1.130090
 O         3.530352        -0.224723         1.343377
 C         4.130810         0.195140         0.096262
 C         3.834377        -0.821097        -1.085825
 C         2.520174        -0.034816        -1.324638
 C         3.083916         1.228322        -0.541130
 O         1.899608         1.283854         0.266756
 H        -0.337213        -1.002112         0.282041
 H        -0.486915         0.458917        -0.733277
 H         0.063458        -0.978332        -1.307682
 H         1.423726        -0.562181         2.058750
 H         2.366320        -1.839511         1.007376
 H         5.145639         0.425759         0.484686
 H         4.560753        -0.878662        -1.824893
 H         3.715848        -1.918095        -0.885916
 H         2.008489        -0.011065        -2.333113
 H         3.426644         2.143234        -0.932100
