19
Iteration:   958
 C         0.081893        -0.460804        -0.299064
 C         1.561010        -0.026517        -0.099481
 C         2.205202        -0.853941         0.998886
 O         3.622759        -0.741150         1.197239
 C         4.069128         0.150120         0.185810
 C         4.018921        -0.526447        -1.188270
 C         2.624140         0.202860        -1.320260
 C         3.033087         1.273358        -0.359895
 O         1.720987         1.401251         0.329368
 H        -0.673462        -0.088062        -0.900436
 H         0.053388        -1.570154        -0.367757
 H        -0.188940        -0.204387         0.695551
 H         1.682961        -0.775968         1.975368
 H         2.014671        -1.864303         0.737330
 H         5.101435         0.515710         0.397125
 H         4.640423        -0.055551        -1.868992
 H         3.959635        -1.544417        -1.240846
 H         2.248507         0.312226        -2.512834
 H         3.503156         2.292307        -0.679127
