19
Iteration:  3749charge 0 multiplicity 1
 C         0.090398        -0.297130        -0.320128
 C         1.546661        -0.097633        -0.051227
 C         2.207876        -0.568115         1.275570
 O         3.549950        -0.140493         1.363359
 C         4.112705         0.204489         0.078897
 C         3.988626        -0.959400        -1.030070
 C         2.499599        -0.259331        -1.296466
 C         3.080040         1.047779        -0.701562
 O         1.884928         1.347115         0.100701
 H        -0.260057        -0.930107         0.536427
 H        -0.476728         0.657664        -0.284312
 H        -0.241422        -0.633167        -1.373620
 H         1.532678        -0.169127         2.046810
 H         2.100873        -1.668439         1.408137
 H         5.067334         0.593203         0.157859
 H         4.685218        -0.872352        -1.826332
 H         3.839206        -1.896642        -0.485992
 H         2.034058        -0.495227        -2.280799
 H         3.418086         1.954376        -1.114251
