19
Iteration:  2091charge 0 multiplicity 1
 C         0.136552        -0.380558        -0.352578
 C         1.565136        -0.094265        -0.032001
 C         2.194922        -0.712878         1.289906
 O         3.558996        -0.492001         1.306412
 C         4.055839         0.224192         0.122760
 C         4.003464        -0.733078        -1.179608
 C         2.581362        -0.098616        -1.266090
 C         3.066032         1.208735        -0.548363
 O         1.794545         1.371230         0.142288
 H        -0.437889        -0.526296         0.533015
 H        -0.132730         0.623332        -0.677312
 H         0.157933        -1.099174        -1.249716
 H         1.450986        -0.127738         2.019901
 H         1.755460        -1.728272         1.353189
 H         4.986111         0.600584         0.430076
 H         4.742773        -0.364827        -1.869999
 H         4.040945        -1.797070        -1.056087
 H         2.124320         0.002063        -2.230604
 H         3.380127         2.068712        -1.166246
