19
Iteration:   973charge 0 multiplicity 1
 C         0.146107        -0.425850        -0.195070
 C         1.603220        -0.068890        -0.100244
 C         2.152900        -0.975160         0.979852
 O         3.537812        -0.644142         1.187904
 C         4.106662         0.189509         0.179979
 C         3.959182        -0.492394        -1.224652
 C         2.601629         0.179407        -1.349542
 C         3.034236         1.304950        -0.344725
 O         1.794059         1.344513         0.307609
 H        -0.105203        -0.066176        -1.214768
 H        -0.044391        -1.488116        -0.222336
 H        -0.558079        -0.018176         0.555113
 H         1.624415        -0.761996         1.864884
 H         2.015641        -2.122340         0.718834
 H         5.050090         0.521740         0.637868
 H         4.790210        -0.151173        -2.004263
 H         4.159596        -1.625918        -1.197393
 H         2.025594         0.329504        -2.264400
 H         3.446618         2.321554        -0.476687
