19
Iteration:  3098
 C         0.091453        -0.431615        -0.136224
 C         1.540612         0.005244        -0.103532
 C         2.162056        -0.760804         1.058956
 O         3.525258        -0.430711         1.320795
 C         4.131492         0.185793         0.136852
 C         3.931850        -0.762605        -1.089382
 C         2.606879        -0.021849        -1.398593
 C         3.088032         1.198065        -0.597090
 O         1.846418         1.420676         0.210606
 H        -0.630747         0.325183         0.057027
 H        -0.160504        -0.696209        -1.178674
 H        -0.155886        -1.341589         0.466442
 H         1.718085        -0.490906         2.033014
 H         1.965318        -1.891862         0.786891
 H         5.147677         0.421578         0.585044
 H         4.639794        -0.739093        -1.958887
 H         3.960057        -1.823472        -0.789245
 H         2.245512         0.007861        -2.462601
 H         3.657783         2.137589        -0.822757
