19
Iteration:   731charge 0 multiplicity 1
 C         0.067349        -0.339333        -0.293753
 C         1.595620        -0.101939        -0.119728
 C         2.177750        -1.081100         0.941160
 O         3.554132        -0.600043         1.277267
 C         4.082638         0.224617         0.201562
 C         3.964151        -0.495221        -1.242499
 C         2.603994         0.177117        -1.287652
 C         3.025591         1.320247        -0.398249
 O         1.837085         1.279726         0.343402
 H        -0.119273        -0.935951        -1.162668
 H        -0.312944        -0.879665         0.680855
 H        -0.584510         0.549431        -0.353164
 H         1.622856        -0.901572         1.833501
 H         2.338704        -2.106765         0.684892
 H         5.109652         0.505876         0.592887
 H         4.740180        -0.012840        -1.888112
 H         4.115011        -1.565465        -1.310322
 H         2.104536         0.396455        -2.259816
 H         3.483108         2.303398        -0.682904
