19
Iteration:  1972charge 0 multiplicity 1
 C         0.077362        -0.358735        -0.315363
 C         1.553617        -0.111214        -0.056410
 C         2.134690        -0.777995         1.173887
 O         3.559875        -0.519326         1.283925
 C         4.111388         0.238084         0.185408
 C         3.987977        -0.661710        -1.122255
 C         2.613338        -0.086193        -1.322179
 C         3.028875         1.203294        -0.596313
 O         1.856590         1.409681         0.193347
 H        -0.348739         0.426749         0.260577
 H        -0.168744        -0.140226        -1.353809
 H        -0.120145        -1.454730        -0.045006
 H         1.780203        -0.398558         2.163962
 H         2.026596        -1.856129         1.249078
 H         5.039875         0.661125         0.538593
 H         4.746935        -0.294869        -1.815920
 H         3.949232        -1.848028        -0.928117
 H         2.042342        -0.162346        -2.323386
 H         3.266310         2.160409        -1.073598
