19
Iteration:  4134charge 0 multiplicity 1
 C         0.117076        -0.280527        -0.149112
 C         1.614681        -0.057323        -0.034424
 C         2.170299        -0.520538         1.321849
 O         3.493159        -0.069765         1.379394
 C         4.004993         0.230930         0.099194
 C         3.949813        -1.044659        -0.799329
 C         2.547948        -0.414026        -1.224564
 C         3.115147         1.025949        -0.856195
 O         1.900209         1.414766        -0.290475
 H        -0.097005        -1.376506         0.099599
 H        -0.398213         0.351879         0.571298
 H        -0.299659         0.032327        -1.162627
 H         1.809346        -0.126417         2.255938
 H         2.240413        -1.670427         1.480644
 H         5.009919         0.748201         0.214003
 H         4.628332        -1.178305        -1.708028
 H         3.887762        -2.060234        -0.234650
 H         1.988622        -0.589406        -2.100663
 H         3.659508         1.771789        -1.471946
