19
Iteration:   617charge 0 multiplicity 1
 C         0.070084        -0.355268        -0.354614
 C         1.521995        -0.043020        -0.103235
 C         2.219906        -1.100330         0.890750
 O         3.596511        -0.600689         1.208545
 C         4.128207         0.250212         0.188164
 C         3.927381        -0.501207        -1.204735
 C         2.624097         0.201150        -1.315851
 C         3.028430         1.283240        -0.348443
 O         1.787064         1.287799         0.503001
 H        -0.347432        -0.829789         0.613970
 H        -0.449281         0.583648        -0.704969
 H        -0.139951        -1.152579        -1.174903
 H         1.696038        -1.253084         1.750205
 H         2.338318        -1.968816         0.300503
 H         5.113314         0.592047         0.502634
 H         4.659077        -0.267396        -2.024651
 H         4.032905        -1.642142        -1.209125
 H         2.299891         0.501152        -2.209248
 H         3.379921         2.309836        -0.570233
