19
Iteration:  2716charge 0 multiplicity 1
 C         0.037113        -0.314537        -0.289367
 C         1.502535        -0.108866        -0.008554
 C         2.162675        -0.788038         1.139840
 O         3.600743        -0.525482         1.229240
 C         4.152884         0.277228         0.151033
 C         4.026706        -0.699978        -1.152038
 C         2.589343         0.002460        -1.284121
 C         3.006677         1.197704        -0.490675
 O         1.829221         1.342740         0.189035
 H        -0.236055         0.033046        -1.364991
 H         0.026629        -1.486941        -0.209059
 H        -0.530048         0.286677         0.406417
 H         1.643272        -0.549976         2.053181
 H         2.123399        -1.817038         0.871146
 H         5.062270         0.676673         0.485214
 H         4.646012        -0.669178        -2.108628
 H         4.131462        -1.794315        -0.833410
 H         2.028657         0.058410        -2.206631
 H         3.453289         2.081146        -0.906462
