19
Iteration:  4680charge 0 multiplicity 1
 C         0.121618        -0.273061        -0.145189
 C         1.589601        -0.044213        -0.045940
 C         2.151464        -0.033729         1.387259
 O         3.482535         0.430873         1.336821
 C         4.074737         0.125033         0.092673
 C         3.851316        -1.235824        -0.350410
 C         2.564584        -0.764383        -1.122297
 C         3.107931         0.682302        -1.056501
 O         1.978056         1.298689        -0.598252
 H        -0.488155         0.161977         0.685513
 H        -0.342394         0.110971        -1.104346
 H        -0.035938        -1.342381        -0.239322
 H         1.497894         0.683243         2.017341
 H         2.021728        -1.021261         1.919501
 H         5.144066         0.476358         0.151834
 H         4.629902        -1.421394        -1.138877
 H         3.873714        -2.055161         0.338199
 H         2.255220        -1.310891        -2.062311
 H         3.505495         1.280747        -1.855103
