19
Iteration:  2189
 C        -0.067009        -0.311271        -0.266053
 C         1.561552        -0.140585        -0.079516
 C         2.204560        -0.814634         1.148514
 O         3.536228        -0.464539         1.252904
 C         4.144010         0.259475         0.175590
 C         4.021156        -0.671314        -1.050089
 C         2.680979        -0.088742        -1.344297
 C         3.076045         1.169265        -0.565986
 O         1.820789         1.398306         0.169094
 H        -0.619200         0.415228         0.363786
 H        -0.375530        -0.113868        -1.321048
 H        -0.328019        -1.391814         0.224184
 H         1.536836        -0.535754         2.044871
 H         2.012215        -1.975307         1.097612
 H         5.102260         0.633720         0.376419
 H         4.558693        -0.455781        -1.986740
 H         4.197102        -1.676676        -0.767607
 H         2.096316         0.023492        -2.229348
 H         3.617848         1.997465        -1.103060
