19
Iteration:  4424
 C         0.082221        -0.321449        -0.204621
 C         1.567888        -0.024977        -0.036594
 C         2.172609        -0.256819         1.290879
 O         3.511468         0.294646         1.392767
 C         4.140065         0.133889         0.126557
 C         3.848307        -1.164201        -0.545436
 C         2.547093        -0.607820        -1.181327
 C         3.121993         0.841033        -1.034130
 O         1.907775         1.345217        -0.346951
 H        -0.148142         0.415977        -0.985547
 H        -0.211000        -1.314830        -0.680329
 H        -0.527493        -0.078355         0.741000
 H         1.668032         0.118085         2.200105
 H         2.429296        -1.342309         1.526901
 H         5.165288         0.312799         0.166949
 H         4.656474        -1.235225        -1.255059
 H         3.924567        -2.133482        -0.007379
 H         2.055548        -1.129218        -2.091814
 H         3.479780         1.662243        -1.677129
