19
Iteration:   464
 C         0.074833        -0.306653        -0.316438
 C         1.584399        -0.122214        -0.076960
 C         2.230940        -1.069879         0.881011
 O         3.604131        -0.802249         1.054427
 C         4.063543         0.225808         0.225947
 C         4.079843        -0.338830        -1.231084
 C         2.573933         0.254970        -1.400583
 C         2.927352         1.332152        -0.228725
 O         1.787244         1.256713         0.507821
 H        -0.366523        -0.709211        -1.272560
 H        -0.206381        -1.096498         0.275116
 H        -0.412092         0.541268         0.199767
 H         1.713597        -1.086855         1.822466
 H         2.003777        -2.175257         0.474704
 H         5.027473         0.625147         0.702300
 H         4.700594         0.202949        -1.908021
 H         4.333660        -1.414128        -1.172582
 H         1.972668         0.525353        -2.354252
 H         3.516507         2.286251        -0.327960
