19
Iteration:  2350charge 0 multiplicity 1
 C         0.124911        -0.353411        -0.340146
 C         1.557325        -0.144197        -0.091515
 C         2.160101        -0.722305         1.188942
 O         3.562131        -0.485928         1.321627
 C         4.064795         0.250025         0.105933
 C         3.962715        -0.733222        -1.054175
 C         2.547719        -0.072289        -1.292725
 C         3.055116         1.222530        -0.567681
 O         1.891009         1.379758         0.187693
 H        -0.381949        -0.942901         0.394663
 H        -0.376992         0.572273        -0.275521
 H        -0.115366        -0.778885        -1.304528
 H         1.662368        -0.470892         2.163885
 H         2.169781        -1.852497         1.255638
 H         5.055513         0.733451         0.439125
 H         4.511920        -0.430151        -2.000083
 H         3.973369        -1.782856        -0.887312
 H         2.085405        -0.025412        -2.340780
 H         3.459548         1.997025        -1.303574
