19
Iteration:  3260charge 0 multiplicity 1
 C         0.099515        -0.307667        -0.389847
 C         1.565983        -0.077021        -0.067100
 C         2.280472        -0.784571         1.157018
 O         3.551463        -0.197469         1.403284
 C         4.128917         0.199252         0.021589
 C         3.789355        -0.878585        -1.052890
 C         2.487129        -0.115051        -1.266450
 C         3.048662         1.156501        -0.587031
 O         1.933483         1.317797         0.238523
 H        -0.037854        -1.409137        -0.365632
 H        -0.533599         0.262595         0.376884
 H        -0.195916        -0.000161        -1.454124
 H         1.663645        -0.561259         2.073321
 H         2.323325        -1.919736         1.055670
 H         5.158547         0.637722         0.124540
 H         4.577037        -0.654605        -1.841008
 H         3.998428        -1.906352        -0.855466
 H         2.127835        -0.109630        -2.355782
 H         3.322956         2.114412        -1.130955
