19
Iteration:  1638
 C         0.131522        -0.370172        -0.465485
 C         1.643306        -0.116169        -0.013608
 C         2.283560        -0.898708         1.105174
 O         3.549433        -0.202420         1.367446
 C         4.015647         0.180728         0.101859
 C         3.785987        -0.807921        -0.998117
 C         2.549163        -0.080863        -1.301201
 C         3.056580         1.182731        -0.593702
 O         1.902924         1.411755         0.292609
 H        -0.353741        -0.765697         0.494911
 H        -0.151572         0.648304        -0.666111
 H        -0.099644        -1.068204        -1.354873
 H         1.577970        -0.859247         1.885757
 H         2.436695        -1.969394         0.712737
 H         5.068542         0.612076         0.065528
 H         4.644940        -0.597790        -1.819367
 H         3.662266        -1.892531        -0.850394
 H         2.003848         0.016205        -2.269207
 H         3.349141         2.147394        -1.095117
