19
Iteration:  4103
 C         0.013063        -0.323746        -0.235841
 C         1.541672        -0.072500        -0.100376
 C         2.168346        -0.400467         1.267272
 O         3.555839        -0.007793         1.385404
 C         4.112578         0.136714         0.157860
 C         3.967272        -1.011457        -0.867596
 C         2.541211        -0.382805        -1.233106
 C         3.095170         0.920906        -0.846680
 O         1.933145         1.360013        -0.100730
 H        -0.302247        -0.864899         0.659696
 H        -0.522030         0.576717        -0.210405
 H        -0.222012        -0.931769        -1.000776
 H         1.773923         0.176136         2.066853
 H         2.144101        -1.426261         1.545840
 H         5.181310         0.570466         0.371260
 H         4.480041        -0.706640        -1.742890
 H         3.888135        -2.049164        -0.448898
 H         2.074622        -0.364302        -2.176360
 H         3.376427         1.679822        -1.655525
