19
Iteration:  2630charge 0 multiplicity 1
 C         0.107931        -0.381598        -0.189678
 C         1.553959        -0.013694        -0.162375
 C         2.253381        -0.920935         0.905000
 O         3.538825        -0.379960         1.371871
 C         4.080637         0.235624         0.209771
 C         3.819841        -0.778253        -1.093505
 C         2.613942         0.113640        -1.359467
 C         3.122690         1.254716        -0.556134
 O         1.833656         1.347821         0.301938
 H        -0.156351        -0.827245        -1.201840
 H        -0.173891        -1.243136         0.500003
 H        -0.594764         0.362899         0.065678
 H         1.663871        -1.191815         1.820224
 H         2.404880        -1.996100         0.398041
 H         5.122496         0.409357         0.394235
 H         4.538759        -0.757631        -1.971725
 H         3.804048        -1.894650        -0.764836
 H         2.226882         0.124679        -2.335708
 H         3.538295         2.114505        -1.049646
