19
Iteration:  1770charge 0 multiplicity 1
 C         0.164696        -0.338439        -0.402962
 C         1.612798        -0.135788        -0.016889
 C         2.266123        -0.937831         1.092080
 O         3.494025        -0.216360         1.320733
 C         4.045172         0.153088         0.074352
 C         3.830260        -0.757057        -1.050817
 C         2.548693         0.013112        -1.319148
 C         3.063419         1.215347        -0.526123
 O         1.866685         1.351231         0.266158
 H        -0.315763         0.539077         0.208118
 H         0.042144        -0.158467        -1.453195
 H        -0.193834        -1.245365         0.075754
 H         1.553451        -1.104692         2.045701
 H         2.711416        -1.912636         0.805230
 H         5.070789         0.528264         0.289422
 H         4.583297        -0.833449        -1.946918
 H         3.633454        -1.819910        -0.872744
 H         2.208776        -0.229810        -2.256444
 H         3.520207         2.226727        -0.815297
