19
Iteration:  4166charge 0 multiplicity 1
 C         0.027349        -0.339360        -0.193977
 C         1.541033        -0.047548        -0.130238
 C         2.233550        -0.457715         1.221510
 O         3.546046         0.115406         1.404923
 C         4.158679         0.134781         0.120358
 C         3.862797        -1.128118        -0.738920
 C         2.531619        -0.441370        -1.206674
 C         3.106203         1.096362        -0.855225
 O         1.912089         1.374989        -0.165526
 H        -0.213893        -1.225633        -0.909392
 H        -0.372571        -0.569001         0.813020
 H        -0.488932         0.623843        -0.609380
 H         1.576781        -0.150077         2.018696
 H         2.305865        -1.619916         1.182408
 H         5.209158         0.462865         0.087721
 H         4.566945        -1.395864        -1.529165
 H         3.899120        -2.135034        -0.296502
 H         2.036503        -0.788602        -2.088273
 H         3.581799         1.855411        -1.438924
