19
Iteration:  2461charge 0 multiplicity 1
 C         0.024778        -0.288215        -0.389275
 C         1.463976        -0.071010        -0.006931
 C         2.236202        -0.814786         1.170978
 O         3.681249        -0.509481         1.334003
 C         4.145287         0.234934         0.145848
 C         3.941359        -0.628042        -1.070913
 C         2.540820        -0.076430        -1.299044
 C         3.038820         1.166020        -0.555589
 O         1.822363         1.331972         0.181749
 H        -0.386063         0.535222         0.153336
 H        -0.096364        -0.128241        -1.446370
 H        -0.388426        -1.332739        -0.099094
 H         1.731453        -0.425659         2.054243
 H         2.080549        -1.904069         0.928614
 H         5.160623         0.627392         0.355112
 H         4.637294        -0.421660        -1.952478
 H         4.105980        -1.689266        -1.065864
 H         1.953040        -0.067506        -2.274876
 H         3.414789         2.060335        -1.166598
