19
Iteration:  1555
 C         0.104610        -0.382829        -0.296370
 C         1.579198        -0.076101        -0.046035
 C         2.204594        -0.798694         1.088022
 O         3.541418        -0.415548         1.286760
 C         4.127364         0.132236         0.180705
 C         3.952282        -0.738439        -1.076861
 C         2.570765        -0.018424        -1.327493
 C         3.073488         1.217145        -0.500104
 O         1.813274         1.420599         0.152984
 H        -0.625204         0.473051        -0.223677
 H        -0.228793        -0.836576        -1.224926
 H        -0.188516        -1.143701         0.396648
 H         1.589422        -0.690773         2.091312
 H         2.231452        -1.870318         0.881633
 H         5.039809         0.562035         0.551482
 H         4.491248        -0.402746        -1.917731
 H         4.104309        -1.829491        -0.992213
 H         2.081211         0.108415        -2.299168
 H         3.447630         2.221261        -0.890060
