19
Iteration:  3821charge 0 multiplicity 1
 C         0.065164        -0.363425        -0.214606
 C         1.583553        -0.033003        -0.076099
 C         2.228081        -0.702331         1.221425
 O         3.522367        -0.114151         1.394988
 C         4.167677         0.164736         0.101461
 C         3.827940        -0.906330        -0.913796
 C         2.545887        -0.198345        -1.296977
 C         3.159004         1.154917        -0.754361
 O         1.879112         1.355625        -0.023630
 H        -0.229336        -1.037066         0.567752
 H        -0.540908         0.567064        -0.079821
 H        -0.267250        -0.724256        -1.149717
 H         1.530148        -0.662869         2.059296
 H         2.173718        -1.829059         0.937144
 H         5.250485         0.363239         0.403312
 H         4.437758        -1.012186        -1.810134
 H         3.678923        -1.773944        -0.311694
 H         2.004978        -0.355801        -2.217405
 H         3.578390         1.908941        -1.478321
