19
Iteration:  2142
 C         0.145196        -0.419408        -0.319326
 C         1.536775        -0.099358        -0.117033
 C         2.274632        -0.919304         1.022595
 O         3.467600        -0.188117         1.371323
 C         4.119656         0.158072         0.162690
 C         3.809425        -0.837586        -1.057304
 C         2.547482         0.008997        -1.310428
 C         3.078978         1.212872        -0.539377
 O         1.903280         1.424539         0.217517
 H        -0.389474        -0.112755         0.615835
 H        -0.187114         0.313303        -1.115402
 H        -0.015577        -1.523765        -0.414888
 H         1.696278        -1.078393         1.850478
 H         2.478216        -1.995571         0.680541
 H         5.193152         0.559234         0.374286
 H         4.701932        -0.764889        -1.787205
 H         3.740744        -1.895784        -0.711861
 H         2.072750         0.057136        -2.343026
 H         3.588202         2.107941        -0.996635
