19
Iteration:   472charge 0 multiplicity 1
 C        -0.008986        -0.344841        -0.327000
 C         1.553987        -0.116620        -0.071706
 C         2.221983        -1.078448         0.903881
 O         3.591445        -0.763598         1.068456
 C         4.101895         0.202140         0.184617
 C         4.042995        -0.307584        -1.221743
 C         2.643466         0.274829        -1.330621
 C         2.970205         1.324764        -0.245055
 O         1.806493         1.223789         0.501225
 H        -0.386620        -0.438446        -1.389125
 H        -0.132528        -1.331533         0.170065
 H        -0.597123         0.576031         0.160566
 H         1.722213        -1.003832         1.836632
 H         2.203251        -2.171951         0.472013
 H         5.087144         0.664059         0.417466
 H         4.812435         0.108351        -1.911304
 H         4.058100        -1.479090        -1.363801
 H         2.179312         0.581362        -2.169635
 H         3.343727         2.354779        -0.369107
