19
Iteration:    20
 C        -0.037412        -0.319187        -0.377220
 C         1.486084        -0.111521        -0.041484
 C         2.344335        -1.222981         0.643901
 O         3.558140        -0.552000         1.221674
 C         4.201257         0.220726         0.106283
 C         3.939003        -0.324190        -1.311899
 C         2.535355         0.309501        -1.323404
 C         3.020409         1.347311        -0.167345
 O         1.864099         1.092441         0.732207
 H        -0.687498        -0.258310         0.575635
 H        -0.377360         0.455677        -1.334493
 H        -0.209826        -1.253798        -0.826241
 H         1.818852        -1.874500         1.334535
 H         2.668691        -1.992419        -0.244037
 H         5.192233         0.432489         0.513827
 H         4.634725         0.165964        -2.048610
 H         4.046095        -1.347986        -1.455992
 H         1.982950         0.460808        -2.245014
 H         3.270394         2.448349        -0.182363
