19
Iteration:  4065
 C         0.230677        -0.344480        -0.250151
 C         1.616001         0.003941        -0.026161
 C         2.233419        -0.527990         1.254602
 O         3.543818        -0.035573         1.343001
 C         4.102816         0.149455         0.157454
 C         3.803456        -1.113164        -0.794368
 C         2.491720        -0.277814        -1.226439
 C         3.034026         1.072235        -0.894484
 O         1.867738         1.417367        -0.097676
 H        -0.329201         0.074047         0.629443
 H        -0.136680         0.002089        -1.301181
 H         0.058899        -1.562434        -0.332447
 H         1.574750        -0.191455         2.143306
 H         2.251960        -1.732293         1.173710
 H         5.079297         0.460697         0.369068
 H         4.611867        -1.358484        -1.602067
 H         3.769416        -2.054490        -0.210757
 H         1.927328        -0.402522        -2.208931
 H         3.426158         1.817074        -1.567177
