19
Iteration:  1857charge 0 multiplicity 1
 C         0.102058        -0.318649        -0.368409
 C         1.532609        -0.100269        -0.088519
 C         2.249803        -0.820528         1.104393
 O         3.605708        -0.379183         1.350869
 C         4.072533         0.188544         0.148250
 C         3.946494        -0.750882        -1.043819
 C         2.518083        -0.074521        -1.258246
 C         3.076036         1.190762        -0.564129
 O         1.851991         1.356904         0.183409
 H        -0.711233        -0.260619         0.449498
 H        -0.403466         0.455681        -0.933069
 H        -0.108030        -1.219260        -0.924828
 H         1.532451        -0.491197         2.020124
 H         2.275633        -1.856669         1.135191
 H         5.107754         0.694213         0.279545
 H         4.533326        -0.327169        -1.909890
 H         4.056720        -1.777320        -0.868062
 H         2.079825        -0.144006        -2.254316
 H         3.311125         2.194848        -1.021118
