19
Iteration:  3527
 C         0.079704        -0.287171        -0.277831
 C         1.575128        -0.079386        -0.091842
 C         2.206690        -0.627112         1.241795
 O         3.576458        -0.185514         1.363093
 C         4.137418         0.237036         0.115783
 C         3.901120        -0.950675        -0.907909
 C         2.517444        -0.257827        -1.291829
 C         3.053746         1.060544        -0.714332
 O         1.856168         1.377699         0.007382
 H        -0.287704        -1.061812         0.441103
 H        -0.404455         0.637207         0.157251
 H        -0.024921        -0.656494        -1.275211
 H         1.594021        -0.023141         1.931749
 H         2.196075        -1.714512         1.275710
 H         5.118098         0.719260         0.382224
 H         4.535574        -0.823201        -1.766096
 H         4.073262        -1.919368        -0.531379
 H         2.122554        -0.421787        -2.297788
 H         3.463786         1.738284        -1.464033
