19
Iteration:  3286charge 0 multiplicity 1
 C         0.111467        -0.262213        -0.276242
 C         1.580663        -0.103538         0.026713
 C         2.289583        -0.816448         1.161311
 O         3.565392        -0.352025         1.341076
 C         4.119912         0.195503         0.064296
 C         3.924083        -0.828540        -1.036812
 C         2.511911        -0.149697        -1.230786
 C         2.988649         1.181198        -0.642413
 O         1.807727         1.444349         0.069516
 H        -0.028493        -1.107517        -0.975159
 H        -0.530285        -0.305843         0.571272
 H        -0.105600         0.637241        -0.901421
 H         1.748760        -0.526672         2.078905
 H         2.281866        -1.899995         0.947391
 H         5.038517         0.789521         0.266757
 H         4.779855        -0.848812        -1.659612
 H         4.040439        -1.882933        -0.656472
 H         2.035750        -0.261271        -2.186298
 H         3.414451         2.025699        -1.176041
