19
Iteration:  3083
 C         0.038803        -0.418018        -0.145566
 C         1.594002        -0.066732        -0.055749
 C         2.098180        -0.766293         1.141296
 O         3.484512        -0.439649         1.256463
 C         4.047500         0.153163         0.158767
 C         3.998310        -0.707440        -1.114747
 C         2.617588         0.020992        -1.343733
 C         3.131439         1.215694        -0.544462
 O         1.944709         1.350069         0.105825
 H        -0.515919         0.537954         0.141623
 H        -0.338880        -0.883880        -1.105247
 H         0.005147        -1.193496         0.574049
 H         1.475502        -0.376597         1.992205
 H         2.111196        -1.882439         1.115386
 H         5.011537         0.530097         0.266233
 H         4.691779        -0.157193        -1.724145
 H         3.910629        -1.773067        -1.135977
 H         2.076699         0.033289        -2.314936
 H         3.362339         2.109040        -1.087488
