19
Iteration:  1113
 C         0.156137        -0.422906        -0.348085
 C         1.582730        -0.040795        -0.071649
 C         2.277522        -0.935696         1.000635
 O         3.610090        -0.588930         1.248349
 C         4.106847         0.199385         0.139307
 C         3.856305        -0.575841        -1.190231
 C         2.527210         0.178956        -1.322477
 C         3.022213         1.234050        -0.374055
 O         1.768806         1.341690         0.393527
 H        -0.377278         0.502310        -0.327558
 H         0.293003        -0.748668        -1.443211
 H        -0.135390        -1.320084         0.226804
 H         1.538148        -0.624471         1.916244
 H         2.142636        -1.926266         0.671639
 H         5.163612         0.477246         0.316868
 H         4.578422        -0.507477        -1.939867
 H         3.778439        -1.570494        -1.033835
 H         2.113535         0.420092        -2.371789
 H         3.456328         2.291916        -0.605294
