19
Iteration:  1850
 C         0.079521        -0.343585        -0.339906
 C         1.617036        -0.082431        -0.060576
 C         2.181102        -0.776809         1.129060
 O         3.595027        -0.444437         1.361960
 C         4.124326         0.228277         0.162202
 C         3.940906        -0.752534        -1.067070
 C         2.522375        -0.078628        -1.339032
 C         3.029441         1.213485        -0.553469
 O         1.826352         1.364312         0.166014
 H        -0.404011        -0.184093         0.625864
 H        -0.315604         0.440225        -1.094582
 H        -0.215086        -1.312002        -0.786777
 H         1.562222        -0.368622         1.956655
 H         2.202960        -1.909538         1.181999
 H         5.113619         0.432632         0.403546
 H         4.555960        -0.184315        -1.844665
 H         4.345492        -1.835612        -0.957045
 H         2.109257        -0.149326        -2.325718
 H         3.330477         2.145358        -1.106225
