19
Iteration:  4293charge 0 multiplicity 1
 C         0.045338        -0.321219        -0.201559
 C         1.537232        -0.052879        -0.024339
 C         2.207235        -0.441403         1.393201
 O         3.462027         0.227248         1.347909
 C         4.128370         0.177364         0.148372
 C         3.841576        -1.170222        -0.701295
 C         2.619402        -0.472876        -1.226519
 C         3.207337         0.950094        -0.949830
 O         1.910571         1.375300        -0.284586
 H        -0.421034        -0.039950         0.687156
 H        -0.358784         0.235104        -0.978419
 H        -0.150555        -1.376086        -0.378297
 H         1.602858        -0.126520         2.329247
 H         2.344461        -1.538597         1.333715
 H         5.120722         0.474558         0.045708
 H         4.568988        -1.203044        -1.596577
 H         3.681573        -2.180138        -0.170571
 H         2.096841        -0.883306        -2.155195
 H         3.480854         1.681364        -1.727477
