19
Iteration:  4203charge 0 multiplicity 1
 C         0.141480        -0.336182        -0.247551
 C         1.650150        -0.066457        -0.054491
 C         2.155178        -0.386386         1.339686
 O         3.536060         0.070680         1.483145
 C         4.078341         0.150180         0.082374
 C         3.832885        -1.098381        -0.818710
 C         2.521211        -0.427471        -1.230424
 C         3.053460         0.998798        -0.954864
 O         1.963586         1.378151        -0.203194
 H        -0.102631        -0.424374        -1.285138
 H        -0.090134        -1.316976         0.220350
 H        -0.475753         0.341206         0.250348
 H         1.522102         0.119859         2.121196
 H         2.105546        -1.496553         1.586995
 H         5.131840         0.500124         0.399860
 H         4.655792        -1.070464        -1.598029
 H         3.705139        -2.120936        -0.219955
 H         1.910226        -0.862515        -2.026480
 H         3.419599         1.844983        -1.661365
