19
Iteration:  1455
 C         0.126235        -0.374021        -0.183128
 C         1.514861        -0.053355        -0.097062
 C         2.136436        -0.871186         1.031857
 O         3.525178        -0.575381         1.271098
 C         4.123558         0.266375         0.223853
 C         4.072883        -0.667830        -1.088329
 C         2.635338        -0.025212        -1.296543
 C         3.036843         1.233947        -0.541441
 O         1.800850         1.410675         0.141778
 H        -0.402053        -0.556782        -1.206370
 H        -0.307644        -1.112722         0.446844
 H        -0.394985         0.545861         0.144779
 H         1.676564        -0.764338         2.112735
 H         2.016708        -1.916783         0.695242
 H         5.095078         0.719885         0.397829
 H         4.668295        -0.346858        -1.965325
 H         4.124458        -1.712067        -0.887732
 H         2.143060         0.071338        -2.250480
 H         3.374696         2.286926        -1.013542
