19
Iteration:  1100charge 0 multiplicity 1
 C         0.135925        -0.504980        -0.340221
 C         1.570953        -0.009676        -0.082452
 C         2.165825        -0.881544         1.030197
 O         3.648077        -0.659841         1.221585
 C         4.097542         0.143640         0.164757
 C         3.896064        -0.567927        -1.197207
 C         2.573429         0.217627        -1.336854
 C         3.038437         1.317156        -0.364613
 O         1.805600         1.369080         0.334136
 H        -0.667442         0.218672        -0.262508
 H        -0.085835        -1.043415        -1.373896
 H        -0.192962        -1.168659         0.478677
 H         1.777130        -0.766551         2.153785
 H         2.046245        -1.954397         0.881853
 H         5.107553         0.525018         0.476196
 H         4.567932        -0.127359        -1.906584
 H         3.879492        -1.657005        -1.238993
 H         2.075434         0.406887        -2.201260
 H         3.462058         2.332502        -0.708270
