19
Iteration:  2109
 C         0.164153        -0.381293        -0.394973
 C         1.529780        -0.104010        -0.095870
 C         2.171334        -0.730465         1.182515
 O         3.581001        -0.385653         1.286487
 C         4.157114         0.169882         0.160313
 C         3.887198        -0.747839        -1.053083
 C         2.555140        -0.081678        -1.300429
 C         3.002410         1.195004        -0.553690
 O         1.846974         1.391186         0.237072
 H        -0.375835        -0.584204         0.580703
 H        -0.365355         0.484580        -0.906237
 H         0.082169        -1.159516        -1.156393
 H         1.691815        -0.310795         1.992298
 H         2.090991        -1.900187         1.155643
 H         5.184137         0.636529         0.267081
 H         4.579110        -0.523353        -1.951530
 H         4.085116        -1.797106        -0.763256
 H         2.009691        -0.149474        -2.268969
 H         3.527353         2.069253        -0.987963
