19
Iteration:  2878
 C         0.117528        -0.342692        -0.223941
 C         1.588991        -0.026092        -0.123735
 C         2.228708        -1.003231         0.983926
 O         3.546660        -0.294651         1.375154
 C         4.125909         0.195238         0.167267
 C         3.830275        -0.779355        -1.032869
 C         2.534881         0.062174        -1.400664
 C         3.050471         1.295112        -0.516577
 O         1.891778         1.317706         0.225336
 H        -0.230054        -0.538636        -1.272069
 H        -0.004024        -1.343395         0.204932
 H        -0.542080         0.356696         0.152782
 H         1.729221        -1.219371         1.946808
 H         2.473583        -2.024498         0.550620
 H         5.104247         0.550582         0.332916
 H         4.563787        -0.842017        -1.890570
 H         3.577653        -1.805181        -0.833874
 H         2.028250         0.166986        -2.419061
 H         3.527731         2.214640        -0.943427
