19
Iteration:  3474
 C         0.151605        -0.386008        -0.280557
 C         1.613288        -0.021374        -0.008636
 C         2.182558        -0.675159         1.180135
 O         3.559849        -0.138646         1.377979
 C         4.119038         0.206498         0.094025
 C         3.782829        -0.940871        -0.887172
 C         2.506923        -0.236784        -1.290550
 C         3.072436         1.131459        -0.729324
 O         1.908515         1.401035         0.016682
 H        -0.267755        -0.655567         0.742288
 H        -0.283224         0.574992        -0.831936
 H         0.025070        -1.240510        -0.967118
 H         1.495438        -0.441994         2.036188
 H         2.250237        -1.717493         0.841282
 H         5.144878         0.551978         0.193975
 H         4.578720        -0.965107        -1.658482
 H         3.826239        -2.049200        -0.530663
 H         1.973900        -0.456383        -2.234636
 H         3.582812         1.969608        -1.169984
