19
Iteration:  4647charge 0 multiplicity 1
 C         0.082112        -0.373949        -0.204106
 C         1.554537        -0.008265        -0.050110
 C         2.181441        -0.089127         1.424193
 O         3.525119         0.446977         1.369026
 C         4.148321         0.153305         0.081812
 C         3.761848        -1.359210        -0.383708
 C         2.610687        -0.669609        -1.101311
 C         3.125718         0.752038        -1.041993
 O         1.941267         1.359188        -0.616818
 H        -0.589053         0.528380        -0.212786
 H         0.044965        -0.952839        -1.159699
 H        -0.183899        -0.956181         0.677211
 H         1.596600         0.579235         2.166417
 H         2.270806        -1.136450         1.751284
 H         5.201888         0.540368         0.263849
 H         4.460083        -1.823551        -1.142889
 H         3.532399        -2.026665         0.418296
 H         2.148828        -1.191308        -2.015678
 H         3.446246         1.392306        -1.835189
