19
Iteration:  3671charge 0 multiplicity 1
 C         0.140704        -0.362432        -0.112854
 C         1.615320        -0.107044        -0.156691
 C         2.144662        -0.618638         1.236379
 O         3.473774        -0.131982         1.386287
 C         4.112157         0.134123         0.170106
 C         3.893001        -0.933096        -0.988088
 C         2.558528        -0.225969        -1.368529
 C         3.113078         1.142117        -0.735580
 O         1.911335         1.394708        -0.057875
 H        -0.190574        -1.432815         0.007974
 H        -0.244324         0.092139         0.860483
 H        -0.348482        -0.002852        -1.025732
 H         1.434425        -0.130726         1.941695
 H         2.028813        -1.817432         1.508730
 H         5.081126         0.549093         0.385461
 H         4.658326        -0.872105        -1.747526
 H         4.024115        -1.885162        -0.522328
 H         2.057211        -0.397928        -2.336585
 H         3.374403         2.043128        -1.204299
