19
Iteration:  4843
 C        -0.025607        -0.210253        -0.081427
 C         1.550864        -0.046863        -0.051237
 C         2.151817         0.033131         1.330733
 O         3.483907         0.440619         1.330488
 C         4.115172         0.228886         0.109783
 C         3.894878        -1.270632        -0.288573
 C         2.594006        -0.809414        -0.989821
 C         3.201298         0.605935        -1.087967
 O         1.960163         1.227258        -0.780675
 H        -0.567749         0.654366        -0.668943
 H        -0.282421        -1.242068        -0.586590
 H        -0.286416        -0.182283         1.012258
 H         1.507434         0.775770         1.816441
 H         2.091936        -0.803826         1.991487
 H         5.190211         0.398880         0.152313
 H         4.648425        -1.705745        -0.996066
 H         3.797059        -1.872855         0.646842
 H         2.206524        -1.387257        -1.924588
 H         3.766422         1.016648        -1.902013
