19
Iteration:  3605
 C         0.138744        -0.304041        -0.346691
 C         1.550754        -0.051827        -0.006026
 C         2.246115        -0.638480         1.302953
 O         3.522081        -0.020982         1.297852
 C         4.103809         0.217427         0.097976
 C         3.878195        -0.992704        -0.902064
 C         2.514584        -0.243338        -1.287136
 C         3.062380         1.091870        -0.756744
 O         1.922988         1.276290         0.026892
 H         0.066221        -1.242093        -0.924584
 H        -0.469813        -0.525151         0.629253
 H        -0.242152         0.623868        -0.759470
 H         1.731339        -0.394973         2.245613
 H         2.167303        -1.732369         1.570058
 H         5.126544         0.406271         0.388417
 H         4.480068        -1.093176        -1.748087
 H         3.589105        -1.887051        -0.440577
 H         2.070269        -0.323806        -2.294777
 H         3.391859         1.837579        -1.425221
