19
Iteration:   977charge 0 multiplicity 1
 C         0.144295        -0.402107        -0.200229
 C         1.638793        -0.079954        -0.085439
 C         2.170399        -1.005387         0.959590
 O         3.526238        -0.609413         1.190850
 C         4.087851         0.195989         0.188604
 C         3.973371        -0.505689        -1.241550
 C         2.547572         0.206797        -1.321368
 C         3.059836         1.296868        -0.342703
 O         1.813715         1.313124         0.311194
 H        -0.158745        -0.112138        -1.324519
 H        -0.074546        -1.491742        -0.260715
 H        -0.609525         0.064899         0.506424
 H         1.525302        -0.808212         1.947754
 H         2.043685        -2.076557         0.761634
 H         5.030680         0.489427         0.624546
 H         4.692830        -0.134673        -1.971307
 H         4.161851        -1.627540        -1.157596
 H         2.162368         0.332787        -2.310740
 H         3.285655         2.309879        -0.657045
