19
Iteration:  1254charge 0 multiplicity 1
 C         0.201312        -0.360698        -0.437396
 C         1.583158        -0.122878        -0.032974
 C         2.263563        -0.981818         1.038166
 O         3.576035        -0.403331         1.322086
 C         4.032441         0.225026         0.136487
 C         3.842947        -0.643597        -1.207676
 C         2.487830         0.120416        -1.355099
 C         3.038759         1.219730        -0.410858
 O         1.875331         1.314697         0.423020
 H        -0.558981        -0.211874         0.343200
 H        -0.179493         0.309428        -1.325648
 H         0.077007        -1.414444        -0.752273
 H         1.595239        -0.797480         1.901456
 H         2.381646        -2.041722         0.806050
 H         5.079508         0.483821         0.385626
 H         4.570104        -0.445549        -1.993756
 H         3.676265        -1.764077        -1.221105
 H         2.198770         0.292703        -2.378690
 H         3.501850         2.222153        -0.768546
