19
Iteration:  4115charge 0 multiplicity 1
 C         0.090968        -0.309898        -0.168052
 C         1.560760        -0.033174        -0.041222
 C         2.114932        -0.439281         1.298526
 O         3.506690        -0.033884         1.385868
 C         4.182036         0.151960         0.096610
 C         3.921678        -1.000241        -0.866262
 C         2.595483        -0.435324        -1.223405
 C         3.069574         0.998394        -0.854782
 O         1.878510         1.383628        -0.149448
 H        -0.219408        -1.082986         0.514452
 H        -0.443141         0.604236         0.047268
 H        -0.147319        -0.561504        -1.108750
 H         1.456079         0.094250         1.987858
 H         1.950457        -1.481129         1.414508
 H         5.278590         0.489398         0.264088
 H         4.676111        -0.966065        -1.636931
 H         4.149961        -2.077156        -0.663081
 H         2.178821        -0.784387        -2.166109
 H         3.494149         1.680794        -1.668732
