19
Iteration:  2172
 C         0.098105        -0.348825        -0.206511
 C         1.536147        -0.087483        -0.129608
 C         2.146259        -0.872840         1.043798
 O         3.519727        -0.332357         1.386382
 C         4.082933         0.199001         0.155259
 C         3.995146        -0.751368        -1.107499
 C         2.556658        -0.010469        -1.338276
 C         3.057412         1.197312        -0.589764
 O         1.898115         1.334413         0.160263
 H        -0.395391         0.324544         0.519082
 H        -0.207804        -0.042987        -1.191924
 H        -0.181215        -1.278386         0.130775
 H         1.610184        -0.748951         2.008606
 H         2.216589        -1.902735         0.849858
 H         5.013516         0.659700         0.623032
 H         4.886914        -0.470230        -1.686464
 H         4.016561        -1.891228        -0.899321
 H         2.198491        -0.038782        -2.406520
 H         3.446295         2.141745        -0.953451
