19
Iteration:  2477
 C         0.120904        -0.295537        -0.299978
 C         1.640264        -0.141559        -0.076736
 C         2.182765        -0.823787         1.111936
 O         3.553335        -0.403068         1.268051
 C         4.109851         0.178935         0.132687
 C         3.970885        -0.755746        -1.163160
 C         2.575475        -0.052569        -1.301865
 C         3.004939         1.224158        -0.510329
 O         1.809120         1.377921         0.264221
 H        -0.585145         0.557495        -0.051746
 H        -0.174748        -0.535000        -1.379388
 H        -0.382879        -1.060720         0.220673
 H         1.613766        -0.537786         2.031389
 H         2.176481        -1.920667         1.059559
 H         5.054213         0.634863         0.436715
 H         4.622208        -0.415137        -1.985710
 H         4.086337        -1.845372        -0.764155
 H         2.119995         0.051986        -2.260016
 H         3.375142         2.152741        -0.861900
