19
Iteration:   636
 C         0.090431        -0.343856        -0.407285
 C         1.594623        -0.146222        -0.095097
 C         2.339983        -1.081730         0.809396
 O         3.532981        -0.476038         1.265097
 C         4.069621         0.172035         0.136100
 C         3.837233        -0.540552        -1.161918
 C         2.502403         0.269382        -1.282998
 C         3.069251         1.322251        -0.296498
 O         1.892163         1.244602         0.480338
 H        -0.453926        -1.165819         0.128299
 H        -0.388847         0.571408        -0.450169
 H         0.040163        -0.773030        -1.508866
 H         1.783632        -1.155477         1.843394
 H         2.452760        -2.111090         0.395266
 H         5.084585         0.485247         0.486930
 H         4.573804        -0.351786        -1.930739
 H         3.886251        -1.712128        -0.999366
 H         1.823471         0.428542        -2.206315
 H         3.318330         2.358708        -0.422372
