19
Iteration:   923charge 0 multiplicity 1
 C         0.164307        -0.400274        -0.420436
 C         1.625556        -0.085410        -0.074563
 C         2.206278        -0.967146         1.091840
 O         3.564074        -0.547051         1.222315
 C         4.067643         0.181996         0.108704
 C         3.875190        -0.550774        -1.235633
 C         2.566020         0.172397        -1.264103
 C         3.050648         1.285335        -0.365204
 O         1.824686         1.311964         0.394294
 H        -0.348364         0.563195        -0.770309
 H         0.007804        -1.204753        -1.129510
 H        -0.309748        -0.816323         0.472136
 H         1.629624        -0.777567         2.089431
 H         2.167908        -1.939611         0.715708
 H         5.043052         0.482075         0.470112
 H         4.568929        -0.300002        -1.933872
 H         3.928753        -1.630361        -1.171178
 H         2.032107         0.153854        -2.325236
 H         3.356891         2.282944        -0.691537
