19
Iteration:  1405
 C         0.076766        -0.333784        -0.363519
 C         1.618121        -0.063668        -0.117471
 C         2.287157        -0.901678         1.067818
 O         3.502057        -0.296095         1.360934
 C         4.131098         0.159776         0.170945
 C         3.869997        -0.717746        -1.170390
 C         2.556647         0.014677        -1.289054
 C         3.072965         1.212528        -0.506273
 O         1.847329         1.295284         0.320203
 H        -0.009117        -0.683402        -1.398463
 H        -0.438871        -1.141201         0.244778
 H        -0.613309         0.472701        -0.498481
 H         1.680043        -0.838056         1.947270
 H         2.436539        -2.009057         0.797273
 H         5.161211         0.547795         0.242304
 H         4.561484        -0.504309        -1.978504
 H         3.764277        -1.843015        -0.991512
 H         1.968662         0.159780        -2.313267
 H         3.510510         2.103387        -0.771413
