19
Iteration:  4855
 C         0.091545        -0.240821        -0.058095
 C         1.561743        -0.033587        -0.099814
 C         2.056375         0.038909         1.383576
 O         3.450689         0.495437         1.297472
 C         4.124626         0.172103         0.066730
 C         3.862775        -1.298040        -0.249278
 C         2.571084        -0.842130        -0.944447
 C         3.250174         0.642414        -1.143142
 O         2.000659         1.227906        -0.736068
 H        -0.356202         0.774352        -0.387537
 H        -0.375709        -1.056535        -0.800060
 H        -0.416470        -0.545867         0.941026
 H         1.609254         0.835168         2.019584
 H         1.904564        -0.995989         1.711536
 H         5.030341         0.768480         0.190720
 H         4.513662        -1.539579        -1.117782
 H         3.965179        -2.062969         0.480737
 H         2.053803        -1.389385        -1.808026
 H         3.599743         1.079132        -2.040324
