19
Iteration:  2044
 C         0.138526        -0.384167        -0.251688
 C         1.599659        -0.069670        -0.098066
 C         2.179637        -0.813527         1.048748
 O         3.496896        -0.328536         1.291835
 C         4.112674         0.225757         0.186274
 C         3.907026        -0.782869        -1.050574
 C         2.617476        -0.037474        -1.320537
 C         3.085327         1.161438        -0.544249
 O         1.831696         1.385812         0.178397
 H        -0.260231        -0.164108         0.752112
 H        -0.402880         0.284040        -0.979058
 H         0.107118        -1.429953        -0.495271
 H         1.543848        -0.766258         1.953018
 H         2.126298        -1.922384         0.718490
 H         5.059585         0.593084         0.578156
 H         4.399479        -0.707103        -2.025208
 H         3.838077        -1.768132        -0.780815
 H         2.128464        -0.051794        -2.279738
 H         3.483192         2.116673        -0.933230
