19
Iteration:  2069
 C         0.002709        -0.386673        -0.304666
 C         1.549383        -0.077916        -0.049211
 C         2.144009        -0.728734         1.211547
 O         3.618879        -0.458756         1.295671
 C         4.127679         0.158031         0.165292
 C         4.049010        -0.679060        -1.050201
 C         2.567347        -0.058478        -1.359794
 C         3.063683         1.160518        -0.572370
 O         1.837936         1.398823         0.109469
 H        -0.427006        -0.522303         0.669248
 H        -0.506706         0.456658        -0.767767
 H         0.176835        -1.354422        -0.907554
 H         1.409780        -0.317458         2.178330
 H         1.763432        -1.781349         1.153552
 H         5.050535         0.485172         0.526491
 H         4.604397        -0.256031        -1.871544
 H         4.100211        -1.758915        -1.049531
 H         2.010115        -0.092736        -2.273960
 H         3.432599         2.134969        -0.957917
