19
Iteration:  4160
 C         0.032248        -0.334464        -0.179719
 C         1.557300        -0.034056        -0.104616
 C         2.187573        -0.481289         1.167856
 O         3.578306         0.077168         1.464123
 C         4.188440         0.156995         0.124622
 C         3.849845        -1.079725        -0.710252
 C         2.532930        -0.454887        -1.255601
 C         3.108779         1.043552        -0.898895
 O         1.873355         1.402966        -0.175332
 H        -0.176392        -1.221874        -0.701789
 H        -0.477578        -0.360712         0.795244
 H        -0.353167         0.516455        -0.639106
 H         1.661138        -0.223961         2.115462
 H         2.292043        -1.535524         1.179744
 H         5.296465         0.440474         0.152519
 H         4.482381        -1.382152        -1.611663
 H         3.964736        -2.130056        -0.233113
 H         2.091216        -0.822235        -2.225725
 H         3.471719         1.951260        -1.510295
