19
Iteration:  3587
 C         0.058692        -0.365388        -0.169160
 C         1.625679        -0.112029        -0.090254
 C         2.170649        -0.607113         1.203629
 O         3.506591         0.003382         1.432638
 C         4.095283         0.135733         0.065358
 C         3.858336        -1.012059        -0.983725
 C         2.608843        -0.237016        -1.348734
 C         3.104950         1.061482        -0.727689
 O         1.909137         1.397287         0.008807
 H        -0.190053        -1.359343        -0.574881
 H        -0.482044        -0.223178         0.758826
 H        -0.437859         0.433727        -0.797357
 H         1.435475        -0.373774         2.018255
 H         2.291258        -1.686633         1.188907
 H         5.056223         0.577354         0.313761
 H         4.752291        -0.820188        -1.642574
 H         3.906110        -2.079998        -0.536606
 H         2.152201        -0.514834        -2.312433
 H         3.561009         1.974071        -1.206404
