19
Iteration:  1998charge 0 multiplicity 1
 C         0.104864        -0.319455        -0.369390
 C         1.558238        -0.086797        -0.064761
 C         2.213869        -0.846498         1.041592
 O         3.533599        -0.246330         1.357131
 C         4.119258         0.200731         0.126001
 C         3.895376        -0.792717        -1.125778
 C         2.545276        -0.059947        -1.268881
 C         3.103474         1.156172        -0.498212
 O         1.840223         1.306946         0.237602
 H        -0.507359         0.486036         0.162753
 H        -0.118675        -0.141670        -1.434423
 H        -0.082044        -1.325480        -0.058595
 H         1.779431        -0.814834         1.981179
 H         2.364190        -1.998330         0.968749
 H         5.211636         0.563389         0.363492
 H         4.648296        -0.428435        -1.874302
 H         4.007538        -1.873446        -0.915574
 H         1.864359         0.074578        -2.213376
 H         3.328845         2.161187        -0.906515
