19
Iteration:  4749
 C         0.129428        -0.262951        -0.143297
 C         1.572170        -0.047633        -0.026476
 C         2.129377        -0.030448         1.363431
 O         3.514828         0.488426         1.386797
 C         4.125326         0.182201         0.053957
 C         3.816109        -1.325617        -0.316009
 C         2.610335        -0.717123        -1.073947
 C         3.125479         0.623721        -1.128174
 O         1.909352         1.248972        -0.657101
 H        -0.086968        -1.265456        -0.109038
 H        -0.397546         0.230595         0.663144
 H        -0.144831         0.192430        -1.084553
 H         1.612736         0.626810         2.111804
 H         2.070735        -1.003675         1.837510
 H         5.114792         0.590153         0.221767
 H         4.582273        -1.761905        -0.986383
 H         3.650850        -2.000803         0.612540
 H         2.136957        -0.895789        -1.976665
 H         3.540740         1.130296        -2.078039
