19
Iteration:  3710charge 0 multiplicity 1
 C         0.038568        -0.326093        -0.220849
 C         1.566409        -0.071874        -0.049273
 C         2.254387        -0.774826         1.155763
 O         3.490387        -0.111445         1.379868
 C         4.186824         0.192654         0.093009
 C         3.876909        -0.919484        -0.879654
 C         2.512765        -0.235916        -1.248439
 C         3.101315         1.137177        -0.724160
 O         1.893061         1.435711        -0.076447
 H        -0.183642        -1.206512         0.389497
 H        -0.430888         0.572973         0.149511
 H        -0.398294        -0.599615        -1.185508
 H         1.822208        -0.498555         2.121171
 H         2.421326        -1.804935         0.971555
 H         5.240494         0.470205         0.520537
 H         4.512936        -1.080512        -1.847407
 H         3.845681        -1.953295        -0.448742
 H         1.853256        -0.381227        -2.121119
 H         3.698222         1.976713        -1.257932
