19
Iteration:  3773charge 0 multiplicity 1
 C         0.040000        -0.367562        -0.173872
 C         1.569219        -0.089293        -0.030470
 C         2.187048        -0.605632         1.212983
 O         3.535882        -0.193117         1.345320
 C         4.178866         0.171029         0.175805
 C         3.923580        -0.932629        -0.955091
 C         2.545958        -0.154881        -1.274877
 C         3.089080         1.118983        -0.754908
 O         1.914503         1.351995        -0.063975
 H        -0.379558        -1.038021         0.643492
 H        -0.581503         0.502988        -0.266635
 H        -0.105614        -0.760007        -1.244733
 H         1.548262        -0.085340         1.935482
 H         1.830766        -1.657006         1.357769
 H         5.239514         0.359204         0.379680
 H         4.488773        -0.647760        -1.744353
 H         3.810623        -2.003850        -0.799727
 H         2.009929        -0.230713        -2.262193
 H         3.498429         2.032108        -1.228717
