19
Iteration:  1667
 C         0.066219        -0.459326        -0.363052
 C         1.594828        -0.083932        -0.063989
 C         2.134698        -0.752423         1.125474
 O         3.560048        -0.283703         1.319894
 C         4.149870         0.163257         0.107588
 C         3.885345        -0.782332        -1.098767
 C         2.606289        -0.019483        -1.287759
 C         3.122111         1.196199        -0.538451
 O         1.846141         1.343478         0.230809
 H        -0.297278        -0.876227         0.513868
 H        -0.477730         0.530086        -0.413889
 H         0.050196        -1.140660        -1.226234
 H         1.476804        -0.434046         2.109248
 H         2.092744        -1.815501         1.034332
 H         5.214982         0.468694         0.197939
 H         4.602125        -0.651450        -1.838855
 H         3.632257        -1.821660        -0.822692
 H         2.122176         0.218312        -2.266548
 H         3.339713         2.114042        -0.997149
