19
Iteration:  3909charge 0 multiplicity 1
 C         0.069742        -0.357449        -0.135115
 C         1.625622         0.034422        -0.129127
 C         2.132011        -0.597193         1.148579
 O         3.574025        -0.118377         1.371173
 C         4.100007         0.161504         0.141055
 C         3.900445        -1.053056        -0.915892
 C         2.584223        -0.234891        -1.278465
 C         3.086448         1.088236        -0.716858
 O         1.866173         1.412342        -0.051230
 H         0.065637        -1.284469        -0.705630
 H        -0.377142        -0.766435         0.819272
 H        -0.539227         0.453520        -0.492726
 H         1.615845        -0.247868         2.038707
 H         2.084209        -1.645901         1.229239
 H         5.157821         0.502853         0.273464
 H         4.560207        -0.964237        -1.746070
 H         3.849448        -2.069856        -0.612664
 H         2.166763        -0.422601        -2.263949
 H         3.357835         1.945333        -1.364708
