19
Iteration:  4636charge 0 multiplicity 1
 C         0.080669        -0.392100        -0.161386
 C         1.529939         0.034303        -0.076921
 C         2.194195        -0.075564         1.368059
 O         3.512298         0.420474         1.310671
 C         4.046836         0.072035         0.123611
 C         3.823347        -1.242878        -0.364157
 C         2.566462        -0.664091        -1.093522
 C         3.197125         0.749685        -1.063796
 O         1.949276         1.337698        -0.554646
 H        -0.572920         0.433691        -0.546647
 H        -0.084762        -1.209596        -0.924894
 H        -0.297881        -0.791765         0.767295
 H         1.668680         0.575802         2.164602
 H         2.137636        -1.095697         1.771863
 H         5.154856         0.292444         0.004967
 H         4.750916        -1.502118        -0.961372
 H         3.754802        -2.030212         0.344626
 H         2.001549        -1.028856        -2.021248
 H         3.803274         1.163318        -1.833690
