19
Iteration:  4685
 C         0.056403        -0.270043        -0.146720
 C         1.568754        -0.025776        -0.016637
 C         2.122897        -0.032199         1.427387
 O         3.443377         0.431219         1.320351
 C         4.135553         0.149966         0.115915
 C         3.886199        -1.259209        -0.391497
 C         2.599685        -0.835304        -1.102514
 C         3.108191         0.741783        -1.097325
 O         1.988512         1.314516        -0.599913
 H        -0.552325        -0.058014         0.730646
 H        -0.440700         0.284596        -0.915230
 H        -0.060671        -1.364816        -0.285502
 H         1.600278         0.683067         2.001271
 H         1.970929        -1.028224         1.821162
 H         5.155867         0.442605         0.037693
 H         4.626789        -1.584858        -1.132232
 H         4.005892        -2.198790         0.298971
 H         2.265609        -1.296996        -2.001502
 H         3.749676         1.270899        -1.900764
