19
Iteration:  2558charge 0 multiplicity 1
 C         0.113587        -0.330530        -0.384587
 C         1.622620        -0.158978        -0.082705
 C         2.185600        -0.835583         1.186295
 O         3.580885        -0.514057         1.278456
 C         4.110497         0.224098         0.109756
 C         3.907503        -0.681505        -1.142458
 C         2.555209        -0.005563        -1.313629
 C         3.022633         1.242388        -0.554555
 O         1.863327         1.378791         0.345481
 H        -0.185906        -0.018059        -1.374767
 H        -0.244270        -1.369452        -0.321797
 H        -0.530677         0.220442         0.449154
 H         1.495682        -0.383359         1.971213
 H         2.028918        -1.894483         1.159548
 H         5.124540         0.743205         0.393682
 H         4.629454        -0.420917        -1.907837
 H         3.956054        -1.748266        -1.136215
 H         1.978769         0.056648        -2.329238
 H         3.396914         2.209510        -1.026342
