19
Iteration:  4301
 C         0.034762        -0.338515        -0.243896
 C         1.550562        -0.034905        -0.014754
 C         2.210828        -0.406032         1.338025
 O         3.520389         0.212307         1.333457
 C         4.079037         0.132736         0.079598
 C         3.864231        -1.110556        -0.628359
 C         2.564288        -0.483950        -1.219947
 C         3.138164         0.924323        -0.928263
 O         1.928759         1.370469        -0.279261
 H        -0.484591        -0.283383         0.731197
 H        -0.502191         0.462422        -0.832414
 H        -0.075270        -1.342064        -0.649899
 H         1.834941        -0.197539         2.323238
 H         2.314982        -1.512651         1.464265
 H         5.180952         0.432334         0.291972
 H         4.651088        -1.175433        -1.314991
 H         3.782610        -2.048063        -0.049213
 H         2.026889        -0.715320        -2.112988
 H         3.744693         1.567222        -1.654147
