19
Iteration:   910
 C         0.197017        -0.349400        -0.441363
 C         1.579632        -0.075113        -0.054851
 C         2.253104        -1.007054         0.979337
 O         3.550892        -0.439304         1.300310
 C         4.072780         0.182790         0.140038
 C         3.905156        -0.649814        -1.218110
 C         2.514635         0.118323        -1.360026
 C         2.977798         1.301288        -0.438404
 O         1.871215         1.264569         0.520826
 H        -0.363512         0.655328        -0.798634
 H         0.292648        -0.938128        -1.351144
 H        -0.503957        -0.740171         0.380515
 H         1.664931        -0.936033         2.006932
 H         2.295160        -2.056172         0.910491
 H         5.079091         0.536333         0.295462
 H         4.542271        -0.182739        -1.951487
 H         3.935949        -1.792454        -1.234331
 H         1.938866         0.442708        -2.233023
 H         3.327767         2.238379        -0.757391
