19
Iteration:  1326charge 0 multiplicity 1
 C         0.094288        -0.376156        -0.200177
 C         1.636430        -0.067216        -0.140772
 C         2.106931        -0.930052         1.045221
 O         3.506168        -0.518967         1.310245
 C         4.181697         0.168581         0.230261
 C         3.980881        -0.606215        -1.222796
 C         2.616901         0.065044        -1.338931
 C         3.025179         1.235024        -0.487687
 O         1.787200         1.387368         0.231655
 H        -0.204980        -1.493438         0.130128
 H        -0.432438         0.315048         0.459799
 H        -0.346693        -0.250968        -1.220656
 H         1.626109        -0.611237         2.069338
 H         2.075282        -2.070688         0.937263
 H         5.177222         0.572755         0.535452
 H         4.755172        -0.103578        -1.850065
 H         4.267701        -1.682521        -1.340460
 H         2.223033         0.122798        -2.475151
 H         3.418037         2.125609        -0.864425
