19
Iteration:  3873charge 0 multiplicity 1
 C         0.110820        -0.277663        -0.273589
 C         1.549318        -0.031919         0.032897
 C         2.142969        -0.709014         1.330235
 O         3.605656        -0.210165         1.343537
 C         4.115679         0.241186         0.093251
 C         3.886677        -0.938454        -0.949778
 C         2.559182        -0.287292        -1.210572
 C         3.044515         1.120044        -0.760600
 O         1.912800         1.389252        -0.083027
 H        -0.164557        -1.399916        -0.275067
 H        -0.513565         0.375627         0.423043
 H        -0.188220        -0.096864        -1.314232
 H         1.558004        -0.222492         2.092232
 H         2.104524        -1.748545         1.297087
 H         5.107674         0.831893         0.314816
 H         4.461260        -0.703961        -1.788358
 H         3.970395        -2.002042        -0.682541
 H         2.003175        -0.461173        -2.150416
 H         3.425034         1.853861        -1.557841
