19
Iteration:  4981charge 0 multiplicity 1
 C         0.025939        -0.264529        -0.106420
 C         1.541323         0.024923        -0.077936
 C         2.133166         0.175788         1.320902
 O         3.512675         0.627629         1.343536
 C         4.132655         0.210648         0.068004
 C         3.844718        -1.406582        -0.165765
 C         2.612156        -0.905512        -0.960630
 C         3.184417         0.561060        -1.098836
 O         1.966392         1.154798        -0.827694
 H        -0.372302        -0.969276        -0.871951
 H        -0.345058        -0.726369         0.790403
 H        -0.439694         0.717047        -0.297271
 H         1.481711         0.848085         1.867613
 H         2.090690        -0.775505         1.924481
 H         5.117226         0.737255         0.033920
 H         4.514475        -1.875609        -0.850403
 H         3.693899        -2.005332         0.766625
 H         2.164576        -1.550140        -1.704277
 H         3.706349         1.041795        -2.029526
