19
Iteration:   757
 C         0.105286        -0.328940        -0.419774
 C         1.572176        -0.074280        -0.098105
 C         2.259991        -1.042840         0.862154
 O         3.537825        -0.397824         1.261519
 C         4.122550         0.202094         0.116240
 C         3.854952        -0.584439        -1.199335
 C         2.563488         0.136465        -1.282091
 C         3.007428         1.228699        -0.323070
 O         1.853826         1.240682         0.516418
 H         0.011390        -0.619141        -1.483826
 H        -0.313551        -0.992761         0.196467
 H        -0.547525         0.532335        -0.222517
 H         1.690970        -1.116964         1.895745
 H         2.675631        -1.992632         0.451566
 H         5.129436         0.532834         0.398232
 H         4.652290        -0.360882        -1.809621
 H         4.039756        -1.678968        -1.107404
 H         2.063590         0.301854        -2.414958
 H         3.460469         2.154586        -0.539230
