19
Iteration:   152
 C         0.026461        -0.343757        -0.470092
 C         1.530296        -0.081078        -0.108434
 C         2.361480        -1.167211         0.673390
 O         3.632351        -0.564893         1.171343
 C         4.178605         0.211270         0.154064
 C         3.823204        -0.403986        -1.275005
 C         2.523807         0.359053        -1.249887
 C         3.037908         1.333973        -0.125443
 O         1.788892         1.081627         0.698688
 H        -0.379820        -0.667615         0.488963
 H        -0.298495         0.732566        -0.899652
 H        -0.172363        -1.038664        -1.196885
 H         1.939869        -1.488259         1.572067
 H         2.542514        -2.090048         0.127027
 H         5.182771         0.367498         0.461985
 H         4.550836        -0.041555        -2.070194
 H         3.836730        -1.451161        -1.456173
 H         2.037487         0.790781        -2.076777
 H         3.202173         2.396515        -0.363436
