19
Iteration:  3333
 C         0.098312        -0.418607        -0.138446
 C         1.598153        -0.088830        -0.123633
 C         2.085901        -0.726224         1.174886
 O         3.488670        -0.200420         1.348493
 C         4.097119         0.130535         0.102532
 C         3.922809        -0.869597        -1.076433
 C         2.595580        -0.106687        -1.364826
 C         3.115980         1.178860        -0.600274
 O         1.880191         1.414942         0.099079
 H        -0.237787        -0.751889        -1.107447
 H        -0.030827        -1.155532         0.670164
 H        -0.417546         0.428094         0.108738
 H         1.565339        -0.290179         2.027616
 H         2.297216        -1.829247         1.116867
 H         5.105011         0.278174         0.402599
 H         4.553116        -0.774218        -1.964543
 H         4.180424        -1.959292        -1.028091
 H         2.255738         0.109697        -2.355368
 H         3.620080         2.016100        -1.048835
