19
Iteration:  2626charge 0 multiplicity 1
 C         0.103991        -0.362371        -0.195224
 C         1.587920        -0.023477        -0.124480
 C         2.256603        -0.934277         0.913720
 O         3.541380        -0.427208         1.376585
 C         4.054116         0.251746         0.176388
 C         3.823745        -0.767463        -1.071431
 C         2.589453         0.107065        -1.383879
 C         3.111538         1.226544        -0.549851
 O         1.832018         1.367841         0.271340
 H        -0.111713        -0.798818        -1.207625
 H        -0.119395        -1.264615         0.436969
 H        -0.691271         0.425793         0.014827
 H         1.841068        -1.068939         1.903007
 H         2.484449        -1.863331         0.464633
 H         5.068103         0.448008         0.524471
 H         4.585737        -0.686178        -1.879443
 H         3.895284        -1.782578        -0.796125
 H         2.109757         0.112505        -2.398916
 H         3.595730         2.151016        -0.935111
