19
Iteration:  2567charge 0 multiplicity 1
 C         0.020322        -0.338369        -0.418850
 C         1.581071        -0.199597        -0.052685
 C         2.112943        -0.775670         1.181878
 O         3.645706        -0.500238         1.242800
 C         4.055516         0.195905         0.111213
 C         3.941508        -0.634119        -1.170217
 C         2.600593        -0.023583        -1.346715
 C         3.039881         1.218574        -0.536014
 O         1.887216         1.343486         0.378176
 H        -0.151721        -0.025918        -1.431197
 H        -0.181550        -1.350028        -0.138925
 H        -0.347000         0.452190         0.300088
 H         1.640772        -0.359585         2.157139
 H         2.069515        -1.825245         1.290471
 H         5.077420         0.740185         0.457342
 H         4.526010        -0.175410        -1.890398
 H         4.073794        -1.703474        -0.906666
 H         1.978643         0.003237        -2.318779
 H         3.531328         2.113663        -1.004725
