19
Iteration:  2512charge 0 multiplicity 1
 C         0.032990        -0.441911        -0.249733
 C         1.546330        -0.054780        -0.119371
 C         2.305057        -0.931785         0.931788
 O         3.505530        -0.292543         1.393935
 C         4.097627         0.123042         0.219277
 C         3.813994        -0.761818        -1.102001
 C         2.556669         0.039399        -1.381874
 C         3.074855         1.254207        -0.527075
 O         1.956133         1.417786         0.251111
 H        -0.546765         0.479671        -0.530835
 H         0.019057        -1.232746        -1.027090
 H        -0.173919        -0.884635         0.750217
 H         1.555538        -0.874898         1.787191
 H         2.445789        -1.945619         0.629790
 H         5.185695         0.482206         0.540239
 H         4.443862        -0.733493        -1.934401
 H         3.961577        -1.826086        -0.753194
 H         2.073377         0.344925        -2.362586
 H         3.482225         2.167348        -0.995699
