19
Iteration:   367charge 0 multiplicity 1
 C         0.120217        -0.408670        -0.447175
 C         1.544366        -0.072942        -0.100056
 C         2.256825        -1.098692         0.836875
 O         3.636519        -0.701230         1.129457
 C         4.082781         0.194466         0.206441
 C         3.897306        -0.400398        -1.325573
 C         2.555724         0.385512        -1.275569
 C         3.004649         1.274129        -0.159851
 O         1.816702         1.238921         0.614433
 H        -0.137082        -1.445604        -0.077591
 H        -0.546897         0.339062         0.078421
 H        -0.108040        -0.272212        -1.496620
 H         1.781735        -1.407589         1.834510
 H         2.325066        -1.990664         0.267411
 H         5.074766         0.650906         0.396340
 H         4.592090         0.045349        -1.994712
 H         3.861900        -1.471481        -1.469595
 H         2.024310         0.812248        -2.232493
 H         3.303312         2.332769        -0.343011
