19
Iteration:  3732charge 0 multiplicity 1
 C         0.118797        -0.280894        -0.281970
 C         1.589701        -0.041589         0.017024
 C         2.191944        -0.699152         1.209307
 O         3.575827        -0.150801         1.377585
 C         4.067969         0.204688         0.098696
 C         3.850647        -0.949867        -0.906549
 C         2.550848        -0.289190        -1.277309
 C         3.028831         1.086798        -0.771985
 O         1.899393         1.406524         0.038967
 H        -0.366609        -1.103549         0.230955
 H        -0.389685         0.670886        -0.318190
 H         0.093179        -0.613948        -1.319190
 H         1.804394        -0.427715         2.195200
 H         2.411360        -1.801427         1.034664
 H         5.080654         0.766178         0.272775
 H         4.583597        -0.825123        -1.816570
 H         4.002884        -1.983910        -0.550096
 H         2.006670        -0.359934        -2.236687
 H         3.347801         1.914366        -1.530134
