19
Iteration:  1533charge 0 multiplicity 1
 C         0.110547        -0.382474        -0.401710
 C         1.540357        -0.079535        -0.039466
 C         2.222889        -0.875343         1.034780
 O         3.609872        -0.335465         1.374188
 C         4.108018         0.213296         0.137741
 C         3.818928        -0.773612        -1.053465
 C         2.557638         0.021373        -1.301860
 C         3.112326         1.221158        -0.532123
 O         1.857580         1.379643         0.277992
 H        -0.476495         0.502966        -0.865336
 H         0.106618        -1.133374        -1.230259
 H        -0.441490        -0.901626         0.356646
 H         1.574844        -0.905368         2.038470
 H         2.298449        -1.908478         0.675206
 H         5.109881         0.606818         0.151216
 H         4.463588        -0.765733        -1.904819
 H         3.806910        -1.824390        -0.721367
 H         2.022488         0.013417        -2.239450
 H         3.375190         2.167026        -1.138411
