19
Iteration:  3248
 C         0.053795        -0.398851        -0.328376
 C         1.572348        -0.136337        -0.060934
 C         2.244821        -0.767447         1.108470
 O         3.529357        -0.152772         1.323262
 C         4.058167         0.148150         0.106877
 C         3.891193        -0.835336        -1.060335
 C         2.497701        -0.080406        -1.380836
 C         3.102910         1.148715        -0.598961
 O         1.990545         1.366124         0.291466
 H        -0.285346        -1.407463         0.037297
 H        -0.682578         0.340800         0.191973
 H        -0.078758        -0.259454        -1.425580
 H         1.564707        -0.437205         1.959381
 H         2.413953        -1.881750         1.175968
 H         5.072591         0.448864         0.384604
 H         4.573092        -0.748781        -1.964170
 H         3.604774        -1.803873        -0.730490
 H         1.765656         0.028016        -2.256204
 H         3.652369         2.060910        -0.965356
