19
Iteration:  1032
 C         0.126223        -0.257183        -0.416229
 C         1.623671        -0.158666        -0.071987
 C         2.301354        -1.134346         0.944885
 O         3.593627        -0.433524         1.228325
 C         4.135873         0.260475         0.140424
 C         3.844504        -0.582733        -1.173643
 C         2.512109         0.158729        -1.260107
 C         2.976272         1.246285        -0.395230
 O         1.815960         1.259244         0.456938
 H        -0.139930         0.334405        -1.417112
 H        -0.312331        -1.301042        -0.564237
 H        -0.433463         0.314349         0.365301
 H         1.780681        -1.385262         2.000956
 H         2.470004        -2.117752         0.385562
 H         5.118689         0.652907         0.414811
 H         4.574278        -0.266869        -1.934746
 H         3.802569        -1.701336        -0.913347
 H         2.089563         0.270774        -2.167745
 H         3.220961         2.282133        -0.669632
