19
Iteration:  1109
 C         0.180331        -0.450117        -0.326186
 C         1.520561        -0.016048        -0.096518
 C         2.236019        -0.911487         1.031034
 O         3.628453        -0.626073         1.242643
 C         4.116114         0.195673         0.153303
 C         3.851626        -0.547928        -1.200374
 C         2.552567         0.183891        -1.327799
 C         3.019403         1.247989        -0.395803
 O         1.780210         1.349220         0.376338
 H        -0.461651         0.459272        -0.331002
 H         0.233726        -0.839459        -1.425066
 H        -0.133694        -1.309733         0.264615
 H         1.672139        -0.649078         1.970347
 H         2.107265        -1.994709         0.673177
 H         5.182719         0.450996         0.316584
 H         4.746411        -0.367338        -1.881778
 H         3.738345        -1.720230        -1.070249
 H         2.177940         0.424237        -2.231627
 H         3.439456         2.237791        -0.561763
