19
Iteration:  2704charge 0 multiplicity 1
 C         0.098664        -0.298325        -0.357459
 C         1.560422        -0.011232         0.008645
 C         2.198581        -0.874608         1.169519
 O         3.624409        -0.540652         1.151856
 C         4.118784         0.279948         0.115215
 C         3.964207        -0.700917        -1.095936
 C         2.600957        -0.080524        -1.214622
 C         3.066704         1.199672        -0.485474
 O         1.735293         1.372531         0.196385
 H        -0.091428        -0.153213        -1.493517
 H        -0.401802        -1.304000        -0.084792
 H        -0.572837         0.331467         0.184982
 H         1.945409        -0.564732         2.156064
 H         1.954080        -1.899742         1.162961
 H         4.993276         0.730731         0.431867
 H         4.585349        -0.292766        -1.932862
 H         4.067423        -1.757121        -0.881593
 H         2.084698        -0.017706        -2.192542
 H         3.346325         2.132643        -0.931205
