19
Iteration:  1874charge 0 multiplicity 1
 C         0.068238        -0.323749        -0.434298
 C         1.608812        -0.071154         0.033166
 C         2.221123        -0.868397         1.127952
 O         3.535010        -0.244799         1.312045
 C         4.157814         0.279223         0.118997
 C         3.860685        -0.830627        -1.062969
 C         2.557994        -0.066952        -1.328287
 C         3.027763         1.162934        -0.536519
 O         1.859197         1.341395         0.256848
 H        -0.479318        -0.482480         0.462946
 H        -0.278148         0.600157        -0.962809
 H        -0.013473        -1.171579        -1.182665
 H         1.811999        -0.918566         2.059133
 H         2.421266        -1.970205         0.711980
 H         5.196808         0.446969         0.410671
 H         4.593769        -0.772551        -1.856430
 H         3.846977        -1.920293        -0.647243
 H         2.072674        -0.030069        -2.367374
 H         3.452018         1.995539        -1.067795
