19
Iteration:  3811
 C         0.129655        -0.380823        -0.159194
 C         1.578397        -0.028650        -0.044555
 C         2.240345        -0.694305         1.096216
 O         3.502467        -0.188932         1.382753
 C         4.098079         0.167379         0.143926
 C         3.831087        -0.973704        -0.884788
 C         2.539323        -0.198437        -1.271398
 C         3.095346         1.142117        -0.761193
 O         1.887222         1.477206        -0.070456
 H        -0.212211        -1.045787         0.613543
 H        -0.470011         0.553762        -0.058886
 H         0.033979        -0.765067        -1.145683
 H         1.722938        -0.469019         2.062477
 H         2.428426        -1.859704         1.055872
 H         5.089541         0.617479         0.379437
 H         4.721393        -1.053659        -1.604420
 H         3.776094        -2.019505        -0.536608
 H         2.010250        -0.297326        -2.207880
 H         3.479085         2.024775        -1.319193
