19
Iteration:  2082charge 0 multiplicity 1
 C         0.121848        -0.350792        -0.326792
 C         1.545381        -0.057204         0.007248
 C         2.112967        -0.710864         1.285518
 O         3.555777        -0.506814         1.312186
 C         4.109353         0.195102         0.178831
 C         3.964614        -0.663320        -1.174503
 C         2.638944        -0.078089        -1.340137
 C         3.033774         1.182322        -0.582069
 O         1.817374         1.342913         0.100225
 H        -0.509735        -0.719313         0.482105
 H        -0.374053         0.457143        -0.823842
 H        -0.061531        -1.165791        -1.098574
 H         1.871591        -0.141981         2.355198
 H         2.115463        -1.781282         1.359434
 H         5.095779         0.645039         0.409108
 H         4.689582        -0.351336        -1.928689
 H         4.185624        -1.792990        -0.958305
 H         2.109109        -0.119428        -2.332120
 H         3.545597         2.071079        -0.969719
