19
Iteration:  3631
 C         0.098860        -0.358214        -0.386329
 C         1.517875        -0.022770        -0.016072
 C         2.242025        -0.627201         1.229520
 O         3.660896        -0.143665         1.424799
 C         4.095706         0.234790         0.015751
 C         3.954231        -1.023953        -0.855325
 C         2.437587        -0.383638        -1.256261
 C         2.995266         1.109390        -0.737813
 O         1.873695         1.505562         0.045350
 H         0.182154        -1.230911        -1.048172
 H        -0.626847        -0.502496         0.370201
 H        -0.218105         0.647065        -0.851521
 H         1.725670        -0.306772         2.132272
 H         2.108654        -1.633528         1.310731
 H         5.167416         0.477341         0.182023
 H         4.441836        -0.883230        -1.851860
 H         3.993222        -2.072055        -0.391453
 H         2.042152        -0.635325        -2.266341
 H         3.497114         1.910469        -1.356876
