19
Iteration:  2159charge 0 multiplicity 1
 C         0.162683        -0.313362        -0.218396
 C         1.666074        -0.047165        -0.099106
 C         2.245706        -0.863829         0.999725
 O         3.430265        -0.259554         1.371215
 C         4.064470         0.160114         0.184489
 C         3.866917        -0.780038        -1.041652
 C         2.615362        -0.060035        -1.372409
 C         3.092901         1.211541        -0.572486
 O         1.829556         1.317064         0.207361
 H        -0.364311         0.223372         0.571381
 H        -0.341883        -0.182674        -1.150491
 H         0.048703        -1.423252        -0.218871
 H         1.449437        -0.841568         1.879975
 H         2.410325        -1.891497         0.606325
 H         5.108596         0.429884         0.271564
 H         4.447885        -0.454848        -1.861686
 H         3.989283        -1.889562        -1.001328
 H         1.985746        -0.018595        -2.275831
 H         3.501522         2.136866        -0.962973
