19
Iteration:  1682
 C         0.104167        -0.447187        -0.261723
 C         1.526915        -0.070321        -0.134157
 C         2.220340        -0.741583         1.134865
 O         3.561522        -0.430049         1.325036
 C         4.092724         0.164841         0.155981
 C         3.931470        -0.788271        -1.055609
 C         2.556947        -0.014313        -1.351958
 C         3.072961         1.240667        -0.512431
 O         1.843824         1.441255         0.142270
 H        -0.354479        -1.001299         0.645929
 H        -0.474735         0.352096        -0.645693
 H        -0.173041        -1.132467        -1.111767
 H         1.634085        -0.247727         1.996514
 H         2.102274        -1.889669         1.155830
 H         5.068729         0.548454         0.590401
 H         4.640015        -0.498555        -1.986660
 H         4.152506        -1.867418        -0.951704
 H         2.144752        -0.010266        -2.306821
 H         3.670785         2.133787        -0.891405
