19
Iteration:  2504
 C         0.102024        -0.399523        -0.217615
 C         1.609234        -0.098519        -0.121199
 C         2.200890        -0.886843         0.986731
 O         3.475170        -0.293170         1.360905
 C         4.127688         0.152219         0.182248
 C         3.816485        -0.708912        -1.076922
 C         2.547436         0.054835        -1.386475
 C         3.115159         1.229226        -0.567990
 O         1.952107         1.327836         0.265225
 H        -0.660656         0.332044        -0.338248
 H        -0.086883        -1.048569        -1.051339
 H        -0.392467        -1.058573         0.595551
 H         1.491676        -0.860586         1.854231
 H         2.374181        -1.889020         0.576635
 H         5.152691         0.554068         0.442009
 H         4.605231        -0.688126        -1.853519
 H         3.822124        -1.758159        -0.825003
 H         2.072456         0.206017        -2.435471
 H         3.524839         2.241531        -0.891817
