19
Iteration:  3285
 C         0.113857        -0.265221        -0.281506
 C         1.584081        -0.103795         0.034354
 C         2.282233        -0.813439         1.154704
 O         3.571882        -0.343912         1.337315
 C         4.120346         0.188956         0.070461
 C         3.920951        -0.826395        -1.035997
 C         2.512647        -0.152366        -1.229927
 C         2.990853         1.182351        -0.646943
 O         1.801252         1.439512         0.076011
 H        -0.015302        -1.116470        -0.980430
 H        -0.528386        -0.259634         0.582660
 H        -0.097895         0.660438        -0.938982
 H         1.746686        -0.568629         2.102586
 H         2.295125        -1.898903         0.974283
 H         5.060435         0.787041         0.295442
 H         4.785714        -0.860533        -1.689039
 H         4.003873        -1.877608        -0.672495
 H         2.005185        -0.266461        -2.207746
 H         3.435078         2.041749        -1.189410
