19
Iteration:  3797
 C         0.168858        -0.396229        -0.153297
 C         1.619206         0.018888        -0.096674
 C         2.181096        -0.670288         1.195290
 O         3.575779        -0.203671         1.384441
 C         4.000132         0.204249         0.129845
 C         3.893542        -1.009150        -0.916794
 C         2.605416        -0.248966        -1.339995
 C         3.046845         1.068114        -0.686235
 O         1.853574         1.554093        -0.045812
 H        -0.046251        -1.017557         0.750703
 H        -0.506252         0.461222        -0.109975
 H        -0.170168        -0.812939        -1.080990
 H         1.469408        -0.620010         2.021610
 H         1.897215        -1.718329         0.834774
 H         5.111476         0.567856         0.226510
 H         4.429824        -0.790305        -1.732731
 H         3.828887        -2.018028        -0.598028
 H         2.165577        -0.332487        -2.347113
 H         3.736053         1.777941        -1.300497
