19
Iteration:  1647
 C         0.153413        -0.374723        -0.416178
 C         1.615399        -0.084671        -0.086722
 C         2.280512        -0.838971         1.105951
 O         3.501828        -0.201466         1.369213
 C         4.073572         0.182274         0.122475
 C         3.799841        -0.868108        -1.056369
 C         2.501066        -0.007683        -1.349279
 C         3.038286         1.209066        -0.572231
 O         1.923903         1.328159         0.292723
 H        -0.423749        -0.905336         0.326339
 H        -0.374430         0.587394        -0.612233
 H         0.321764        -0.998256        -1.342613
 H         1.815081        -0.691109         2.166397
 H         2.333600        -1.933637         0.978243
 H         5.138372         0.569121         0.305675
 H         4.446717        -0.667434        -1.949434
 H         3.862303        -1.894839        -0.666610
 H         2.017003        -0.134605        -2.215476
 H         3.468234         2.131629        -0.876330
