19
Iteration:  4557
 C         0.048711        -0.287209        -0.179209
 C         1.544549        -0.058071        -0.035148
 C         2.142658        -0.229748         1.436114
 O         3.491045         0.328070         1.372878
 C         4.152329         0.184153         0.094431
 C         3.897881        -1.250102        -0.438976
 C         2.582385        -0.652298        -1.132715
 C         3.169162         0.780845        -1.145462
 O         1.918726         1.382284        -0.490994
 H        -0.228010        -1.259206        -0.751101
 H        -0.513851        -0.060814         0.726042
 H        -0.342997         0.416735        -0.981466
 H         1.601866         0.326760         2.236386
 H         2.189413        -1.201353         1.875546
 H         5.203557         0.526158         0.145996
 H         4.627897        -1.373207        -1.248433
 H         3.854777        -1.971072         0.349424
 H         1.956312        -1.205991        -2.003463
 H         3.608570         1.294394        -1.998140
