19
Iteration:  2321
 C         0.031307        -0.310006        -0.301053
 C         1.520376        -0.117456        -0.050907
 C         2.128413        -0.686708         1.178258
 O         3.548722        -0.417123         1.283312
 C         4.106009         0.163239         0.088831
 C         4.078030        -0.691208        -1.094561
 C         2.586783        -0.155967        -1.313901
 C         3.078470         1.198563        -0.471894
 O         1.814563         1.335255         0.158964
 H        -0.436924        -0.832329         0.570052
 H        -0.443430         0.680487        -0.321170
 H        -0.100698        -0.751388        -1.376428
 H         1.824665        -0.441826         2.149489
 H         2.258973        -1.764000         1.140336
 H         5.035511         0.540687         0.371789
 H         4.675439        -0.261675        -2.011246
 H         4.314064        -1.777119        -1.074800
 H         2.222508        -0.308524        -2.308680
 H         3.444039         2.105262        -0.960072
