19
Iteration:   557
 C         0.085189        -0.382281        -0.383035
 C         1.547944        -0.072110        -0.099875
 C         2.213614        -0.998937         0.872802
 O         3.600736        -0.645915         1.163203
 C         4.127488         0.192912         0.139030
 C         3.959201        -0.480088        -1.242951
 C         2.574043         0.229943        -1.302586
 C         3.069211         1.287144        -0.293870
 O         1.764329         1.247611         0.564911
 H        -0.479141         0.485317        -0.181350
 H        -0.113544        -0.526737        -1.482266
 H        -0.306184        -1.244013         0.162537
 H         1.705659        -1.029029         1.916987
 H         2.221312        -2.037149         0.542066
 H         5.117287         0.488591         0.534703
 H         4.604810         0.163376        -1.832394
 H         4.096550        -1.561019        -1.357055
 H         2.069166         0.647226        -2.296582
 H         3.286319         2.343976        -0.250464
