19
Iteration:  2941
 C         0.117062        -0.359398        -0.302038
 C         1.567384        -0.149601        -0.084683
 C         2.163741        -0.778510         1.146935
 O         3.657525        -0.570426         1.171581
 C         4.087124         0.265394         0.171586
 C         3.980337        -0.673295        -1.078593
 C         2.497495        -0.062373        -1.265043
 C         3.005923         1.167384        -0.516576
 O         1.861178         1.472233         0.220749
 H        -0.082032         0.039706        -1.366183
 H        -0.268814        -1.363896        -0.163815
 H        -0.364282         0.267007         0.451764
 H         1.621055        -0.365522         2.022266
 H         1.972103        -1.845272         1.003964
 H         4.950221         0.736211         0.576337
 H         4.535070        -0.320509        -1.960494
 H         3.990889        -1.707298        -0.771019
 H         1.940678        -0.171313        -2.236824
 H         3.346898         2.070657        -1.022587
