19
Iteration:  3907charge 0 multiplicity 1
 C         0.073922        -0.352733        -0.141428
 C         1.605714         0.047758        -0.116620
 C         2.126617        -0.592032         1.157100
 O         3.585471        -0.131491         1.368117
 C         4.118131         0.156882         0.134869
 C         3.906675        -1.034104        -0.908446
 C         2.576556        -0.252004        -1.286730
 C         3.067179         1.073692        -0.701338
 O         1.861697         1.427648        -0.054153
 H         0.060027        -1.316744        -0.740766
 H        -0.383729        -0.723154         0.866661
 H        -0.545796         0.425732        -0.557446
 H         1.601606        -0.234924         2.031043
 H         2.116736        -1.681916         1.126271
 H         5.220895         0.524804         0.264137
 H         4.574871        -0.992203        -1.698421
 H         3.909138        -2.087085        -0.626225
 H         2.200085        -0.459384        -2.285376
 H         3.359392         1.940294        -1.386860
