19
Iteration:  3366
 C         0.143023        -0.344433        -0.318902
 C         1.574283        -0.099080        -0.047709
 C         2.232285        -0.736846         1.144843
 O         3.620459        -0.210283         1.377360
 C         4.174232         0.130216         0.121230
 C         3.801235        -0.915810        -0.944306
 C         2.486389        -0.161896        -1.273863
 C         3.006788         1.248097        -0.705634
 O         1.847428         1.420230         0.117996
 H        -0.061064         0.000594        -1.319203
 H        -0.122126        -1.408781        -0.479748
 H        -0.493951         0.111494         0.355606
 H         1.568855        -0.675587         2.022779
 H         2.413426        -1.826163         0.941288
 H         5.184865         0.411419         0.213716
 H         4.511875        -0.824942        -1.769747
 H         3.779050        -1.907675        -0.372700
 H         2.253740        -0.070463        -2.302806
 H         3.423614         2.086607        -1.248058
