19
Iteration:  1774
 C         0.170897        -0.335183        -0.366009
 C         1.612218        -0.120397        -0.027390
 C         2.235617        -0.921207         1.094311
 O         3.496298        -0.252790         1.332554
 C         4.047613         0.165547         0.081455
 C         3.855205        -0.774270        -1.054659
 C         2.526715         0.012956        -1.300787
 C         3.091925         1.217893        -0.545168
 O         1.851819         1.369000         0.252515
 H        -0.360339         0.415748         0.193272
 H         0.061107        -0.300734        -1.505977
 H        -0.234386        -1.265973         0.027923
 H         1.761276        -1.088212         1.944034
 H         2.745197        -1.905031         0.797194
 H         4.989333         0.589651         0.224933
 H         4.538637        -0.806503        -1.901925
 H         3.655206        -1.878569        -0.893940
 H         2.261027        -0.099156        -2.416402
 H         3.489166         2.232593        -0.733038
