19
Iteration:  4976
 C         0.014367        -0.276987        -0.097509
 C         1.572863         0.024458        -0.091987
 C         2.120646         0.175550         1.328369
 O         3.506857         0.621312         1.325569
 C         4.091020         0.181475         0.119240
 C         3.857508        -1.407036        -0.199792
 C         2.608346        -0.909138        -0.932518
 C         3.229365         0.553794        -1.094027
 O         1.939631         1.208525        -0.844125
 H        -0.370753        -1.095587        -0.728369
 H        -0.426832        -0.622011         0.910130
 H        -0.495670         0.711559        -0.441782
 H         1.543599         0.963572         1.896332
 H         2.196468        -0.769115         1.846332
 H         5.110424         0.553159        -0.031054
 H         4.709875        -1.693008        -0.905933
 H         3.765140        -2.005539         0.689129
 H         2.211514        -1.604585        -1.713913
 H         3.650022         0.890594        -1.970336
