19
Iteration:  4744charge 0 multiplicity 1
 C         0.111987        -0.253378        -0.156626
 C         1.619827        -0.031829        -0.032705
 C         2.131279        -0.024113         1.390696
 O         3.505318         0.468312         1.426369
 C         4.088512         0.157307         0.056154
 C         3.858585        -1.334748        -0.310589
 C         2.629845        -0.709476        -1.057514
 C         3.090287         0.687804        -1.175669
 O         1.914850         1.226746        -0.665319
 H        -0.127003        -1.372096         0.106912
 H        -0.314316         0.485704         0.605503
 H        -0.209826         0.140963        -1.142708
 H         1.568218         0.608533         2.100420
 H         2.049768        -1.096516         1.814529
 H         5.084139         0.665450        -0.039506
 H         4.579337        -1.741247        -1.011594
 H         3.591020        -1.957967         0.490836
 H         2.027850        -1.062933        -2.000194
 H         3.630938         1.017665        -2.022294
