19
Iteration:  2722
 C         0.035259        -0.345254        -0.255350
 C         1.529095        -0.129890        -0.063845
 C         2.150668        -0.755575         1.096310
 O         3.587049        -0.498913         1.288628
 C         4.138896         0.202595         0.150117
 C         4.033302        -0.665178        -1.157974
 C         2.555699        -0.025287        -1.325771
 C         3.025490         1.228228        -0.526079
 O         1.851293         1.361382         0.227430
 H        -0.233348         0.027859        -1.198025
 H        -0.119633        -1.379784        -0.297654
 H        -0.541267         0.113292         0.579104
 H         1.526372        -0.626004         2.021821
 H         2.271031        -1.891507         0.955532
 H         5.122710         0.610835         0.559108
 H         4.656058        -0.676197        -2.028105
 H         4.061253        -1.691748        -0.844801
 H         2.131285         0.122436        -2.363966
 H         3.454937         2.162945        -0.976363
