19
Iteration:  2744
 C         0.141883        -0.368182        -0.215523
 C         1.590209        -0.071488        -0.110120
 C         2.204600        -0.872043         1.018897
 O         3.482278        -0.299744         1.337478
 C         4.046802         0.164211         0.172403
 C         3.826967        -0.769641        -1.089299
 C         2.583595         0.056781        -1.364221
 C         3.091946         1.208240        -0.522650
 O         1.904827         1.310332         0.204023
 H        -0.492403         0.291377        -0.727655
 H         0.173497        -1.327956        -0.591137
 H        -0.085603        -0.396642         0.891039
 H         1.501370        -0.694076         1.921809
 H         2.344980        -2.039986         0.856278
 H         5.126927         0.449352         0.372891
 H         4.549319        -0.325944        -1.779692
 H         4.108992        -1.777985        -1.332430
 H         2.088272         0.047655        -2.386243
 H         3.617706         2.122740        -0.889373
