19
Iteration:   380
 C         0.157635        -0.388215        -0.470153
 C         1.643445        -0.117726        -0.069001
 C         2.313010        -1.225935         0.780391
 O         3.575869        -0.653819         1.200818
 C         4.087014         0.205283         0.060642
 C         3.789903        -0.404083        -1.262953
 C         2.554359         0.414608        -1.274690
 C         3.020350         1.420386        -0.159346
 O         1.813008         1.210837         0.619818
 H        -0.121496        -1.464650        -0.362057
 H        -0.635030         0.268012         0.195095
 H         0.001865        -0.246757        -1.470672
 H         1.643276        -1.062998         1.738722
 H         2.296315        -2.273735         0.434517
 H         5.065119         0.300610         0.412993
 H         4.566811        -0.214298        -2.064452
 H         3.683356        -1.455939        -1.218054
 H         1.966288         0.657723        -2.218380
 H         3.488535         2.409681        -0.151763
