19
Iteration:   733
 C         0.061668        -0.344461        -0.295347
 C         1.594980        -0.110657        -0.124830
 C         2.189886        -1.070200         0.926333
 O         3.557667        -0.586589         1.286373
 C         4.078159         0.224208         0.199317
 C         3.974667        -0.497588        -1.230335
 C         2.586865         0.174306        -1.275046
 C         3.036013         1.323925        -0.401697
 O         1.841901         1.270531         0.350524
 H        -0.111593        -0.907378        -1.176069
 H        -0.313920        -0.846952         0.573036
 H        -0.573339         0.568431        -0.318402
 H         1.597409        -0.864679         1.894033
 H         2.337658        -2.138443         0.624155
 H         5.104642         0.447283         0.620055
 H         4.661603        -0.067863        -1.905996
 H         4.103455        -1.580237        -1.382459
 H         2.055712         0.440000        -2.343427
 H         3.441799         2.292999        -0.678223
