19
Iteration:  2516
 C         0.018891        -0.461236        -0.272983
 C         1.525823        -0.011854        -0.132060
 C         2.334991        -0.938635         0.921007
 O         3.511724        -0.311022         1.406936
 C         4.095834         0.152112         0.194910
 C         3.845657        -0.819508        -1.095635
 C         2.548005         0.049489        -1.345897
 C         3.070434         1.240069        -0.501919
 O         1.927481         1.458734         0.248000
 H        -0.404900         0.456118        -0.602361
 H         0.039981        -1.257152        -0.984825
 H        -0.160786        -0.740584         0.830577
 H         1.707429        -0.987062         1.837107
 H         2.473138        -2.028473         0.694221
 H         5.137767         0.383753         0.478254
 H         4.506093        -0.574553        -1.998788
 H         3.770174        -1.862035        -0.848913
 H         2.097191         0.267304        -2.382059
 H         3.492491         2.152347        -1.033806
