19
Iteration:  1552charge 0 multiplicity 1
 C         0.098529        -0.398033        -0.314560
 C         1.583889        -0.054501        -0.048531
 C         2.215581        -0.813397         1.080043
 O         3.542331        -0.409800         1.303210
 C         4.145418         0.144143         0.159381
 C         3.950105        -0.754278        -1.079158
 C         2.559171        -0.029189        -1.297799
 C         3.055477         1.209280        -0.500452
 O         1.811467         1.433823         0.163519
 H        -0.602156         0.479987        -0.290776
 H        -0.213693        -0.821788        -1.229157
 H        -0.269571        -1.111527         0.425265
 H         1.680065        -0.686719         1.982278
 H         2.273193        -1.917038         0.904415
 H         5.070104         0.536917         0.632837
 H         4.548162        -0.386792        -1.947145
 H         3.988912        -1.826894        -0.960756
 H         2.050523         0.180083        -2.397860
 H         3.480441         2.211606        -0.900790
