19
Iteration:  3767
 C         0.019392        -0.370171        -0.215931
 C         1.582009        -0.139323        -0.056908
 C         2.146801        -0.594672         1.240306
 O         3.560978        -0.158577         1.308831
 C         4.163798         0.163064         0.122207
 C         3.882268        -0.930855        -0.914576
 C         2.610651        -0.185753        -1.284167
 C         3.075665         1.134112        -0.719662
 O         1.910588         1.345375        -0.006682
 H        -0.497119        -0.898916         0.544133
 H        -0.529337         0.631921        -0.173841
 H        -0.087655        -0.719629        -1.187681
 H         1.591526        -0.008344         2.026248
 H         1.900917        -1.732200         1.533608
 H         5.240119         0.371667         0.472155
 H         4.487347        -0.591235        -1.958058
 H         3.936947        -2.049924        -0.885551
 H         2.079613        -0.140436        -2.211765
 H         3.534597         1.923502        -1.382198
