19
Iteration:  2012charge 0 multiplicity 1
 C         0.091533        -0.350300        -0.350083
 C         1.585615        -0.111401        -0.102064
 C         2.325762        -0.916020         1.063717
 O         3.506645        -0.211353         1.388463
 C         4.093872         0.211189         0.190312
 C         3.802619        -0.808043        -1.058242
 C         2.568804        -0.010791        -1.370348
 C         3.051320         1.186623        -0.564394
 O         1.905977         1.344609         0.273707
 H        -0.399857         0.314664         0.384912
 H        -0.170726        -0.112329        -1.427574
 H        -0.279725        -1.381599        -0.203737
 H         1.501120        -0.927534         1.946264
 H         2.529610        -1.853467         0.520782
 H         5.072561         0.584847         0.418865
 H         4.489870        -0.751264        -1.927915
 H         3.658970        -1.804183        -0.928493
 H         2.193121        -0.004883        -2.372359
 H         3.533622         2.084287        -1.030397
