19
Iteration:  4498charge 0 multiplicity 1
 C         0.038995        -0.358328        -0.128339
 C         1.613077        -0.002751        -0.062141
 C         2.083873        -0.148710         1.378417
 O         3.542659         0.243126         1.426492
 C         4.113578         0.184547         0.103820
 C         3.867700        -1.204231        -0.586409
 C         2.562358        -0.557066        -1.178638
 C         3.198475         0.809901        -0.972195
 O         1.907705         1.299236        -0.526085
 H        -0.375907        -0.434777         0.870648
 H        -0.548680         0.468211        -0.671427
 H        -0.087143        -1.274405        -0.768697
 H         1.701170         0.415825         2.169758
 H         2.022541        -1.251648         1.525479
 H         5.146521         0.522588         0.112495
 H         4.622746        -1.631762        -1.155267
 H         3.695699        -1.955393         0.199238
 H         2.107008        -0.985161        -2.005895
 H         3.739661         1.475800        -1.689077
