19
Iteration:  1803
 C         0.062281        -0.437646        -0.254227
 C         1.544535        -0.062058        -0.140586
 C         2.156069        -0.753360         1.041394
 O         3.571993        -0.447280         1.325067
 C         4.153776         0.139609         0.183982
 C         3.941623        -0.662961        -1.046792
 C         2.567881        -0.026853        -1.304425
 C         3.086905         1.202290        -0.556885
 O         1.850468         1.416624         0.178709
 H        -0.538868         0.264608         0.445853
 H        -0.419420        -0.494296        -1.235051
 H        -0.138538        -1.466861         0.087590
 H         1.555948        -0.531323         2.061786
 H         2.175961        -1.861057         0.915950
 H         5.158183         0.535224         0.413312
 H         4.626339        -0.385398        -1.952982
 H         3.841664        -1.742407        -0.901075
 H         2.290711        -0.107843        -2.310863
 H         3.497301         2.183147        -0.983153
