19
Iteration:  3101charge 0 multiplicity 1
 C         0.088420        -0.432862        -0.160121
 C         1.568701         0.010000        -0.100915
 C         2.159152        -0.784203         1.043859
 O         3.539175        -0.423572         1.326162
 C         4.147965         0.209179         0.151567
 C         3.952746        -0.800545        -1.083233
 C         2.555751        -0.021604        -1.403408
 C         3.095190         1.191114        -0.587021
 O         1.820850         1.443947         0.220615
 H        -0.585986         0.422805         0.022211
 H        -0.211118        -0.686638        -1.149158
 H        -0.104960        -1.394333         0.414883
 H         1.722089        -0.495581         1.995324
 H         2.053605        -1.840788         0.780965
 H         5.230114         0.415440         0.515866
 H         4.613572        -0.753141        -1.982659
 H         3.843287        -1.929284        -0.752992
 H         2.224643         0.035424        -2.416698
 H         3.601454         2.142812        -0.833315
