19
Iteration:  1813charge 0 multiplicity 1
 C         0.069910        -0.450684        -0.202058
 C         1.532790        -0.072933        -0.153405
 C         2.147852        -0.787508         1.129577
 O         3.525786        -0.472674         1.287755
 C         4.121302         0.211807         0.156882
 C         3.971861        -0.740104        -1.077413
 C         2.616086        -0.049727        -1.352538
 C         3.113678         1.251536        -0.535928
 O         1.832565         1.412159         0.149243
 H        -0.570967         0.232275         0.480788
 H        -0.305691        -0.189397        -1.182218
 H        -0.039490        -1.524070         0.057633
 H         1.650425        -0.365401         2.174869
 H         1.798899        -1.754188         0.997235
 H         5.168443         0.549919         0.504511
 H         4.666409        -0.273155        -1.855245
 H         4.264107        -1.770414        -0.963203
 H         2.094577         0.195984        -2.262792
 H         3.620394         2.202732        -0.858475
