19
Iteration:  3976charge 0 multiplicity 1
 C         0.079361        -0.304302        -0.235707
 C         1.508376        -0.022703         0.012246
 C         2.164583        -0.656639         1.245731
 O         3.619799        -0.146797         1.346172
 C         4.133354         0.185719         0.079392
 C         3.898917        -0.931220        -0.850326
 C         2.552389        -0.334705        -1.176779
 C         3.056821         1.060825        -0.796488
 O         1.874929         1.468358        -0.110225
 H        -0.014238        -0.044498        -1.312208
 H        -0.143681        -1.447069        -0.375867
 H        -0.718166         0.244927         0.379467
 H         1.720199        -0.235997         2.184501
 H         2.111157        -1.751512         1.309537
 H         5.122687         0.575992         0.205245
 H         4.520153        -1.178015        -1.725669
 H         4.114959        -1.862558        -0.407740
 H         2.111795        -0.450400        -2.196459
 H         3.498533         1.742884        -1.505523
