19
Iteration:   693
 C         0.081373        -0.396927        -0.348897
 C         1.550195        -0.059226        -0.147366
 C         2.189680        -0.982007         0.946400
 O         3.599126        -0.705693         1.173494
 C         4.165143         0.204951         0.202569
 C         3.942795        -0.479772        -1.188914
 C         2.592623         0.187417        -1.246674
 C         3.055183         1.307600        -0.331156
 O         1.783632         1.329297         0.391222
 H         0.030888        -1.556016        -0.360734
 H        -0.478197        -0.157960         0.613179
 H        -0.413340         0.134232        -1.223312
 H         1.681050        -0.709719         1.899591
 H         1.955777        -2.021632         0.646733
 H         5.085819         0.645268         0.536732
 H         4.591580         0.016505        -1.994137
 H         4.144993        -1.628990        -1.201499
 H         2.057893         0.294002        -2.179835
 H         3.261353         2.302137        -0.727723
