19
Iteration:  3790charge 0 multiplicity 1
 C         0.137038        -0.403309        -0.170493
 C         1.589086         0.029458        -0.112546
 C         2.146428        -0.611360         1.215728
 O         3.559645        -0.229066         1.429512
 C         4.054060         0.153263         0.095864
 C         3.876617        -0.919135        -0.964634
 C         2.593821        -0.272900        -1.342477
 C         3.117889         1.091453        -0.693278
 O         1.843360         1.500648        -0.039720
 H        -0.046663        -0.907872         0.755350
 H        -0.534306         0.485247        -0.003463
 H        -0.156742        -0.876261        -1.100855
 H         1.543172        -0.527716         2.171493
 H         2.160218        -1.786406         1.004206
 H         5.010008         0.590444         0.351241
 H         4.652335        -0.908344        -1.927132
 H         3.959893        -1.949499        -0.520875
 H         2.102185        -0.355960        -2.297571
 H         3.645773         1.783421        -1.341240
