19
Iteration:  4889charge 0 multiplicity 1
 C         0.071861        -0.302043        -0.222212
 C         1.565471        -0.052021        -0.036261
 C         2.188021         0.078926         1.445599
 O         3.519924         0.618253         1.297046
 C         4.074684         0.171378         0.088718
 C         3.786556        -1.325391        -0.225764
 C         2.508531        -0.843626        -0.985890
 C         3.194413         0.539196        -1.104017
 O         2.000264         1.260323        -0.721946
 H        -0.548506         0.316969         0.488779
 H        -0.165550         0.086688        -1.292616
 H        -0.115515        -1.450909        -0.120092
 H         1.643012         0.742157         2.170755
 H         2.119965        -0.899116         1.916108
 H         5.070091         0.606607        -0.046546
 H         4.518591        -1.590987        -0.996617
 H         3.805375        -2.022659         0.561897
 H         2.057016        -1.400815        -1.835423
 H         3.585600         1.069456        -1.929083
