19
Iteration:  3928charge 0 multiplicity 1
 C         0.141526        -0.426021        -0.172109
 C         1.611200        -0.152327        -0.074121
 C         2.172295        -0.598979         1.293452
 O         3.450617        -0.031528         1.390693
 C         4.110305         0.157427         0.086055
 C         3.770368        -0.939001        -0.938649
 C         2.545435        -0.161492        -1.403826
 C         3.165858         1.077170        -0.744655
 O         1.962374         1.379318        -0.044749
 H        -0.352528        -1.049037        -1.013365
 H        -0.271506        -0.884808         0.837073
 H        -0.238228         0.600748        -0.200173
 H         1.485565        -0.202989         2.058409
 H         2.263174        -1.750082         1.339939
 H         5.238853         0.411676         0.342236
 H         4.587655        -1.176986        -1.561652
 H         3.591678        -1.973309        -0.536914
 H         2.142264        -0.282588        -2.429175
 H         3.706006         1.963764        -1.263504
