19
Iteration:  2097charge 0 multiplicity 1
 C         0.154752        -0.363930        -0.386800
 C         1.655530        -0.142478        -0.050997
 C         2.137006        -0.692684         1.210612
 O         3.583443        -0.456888         1.298532
 C         4.060582         0.204380         0.097569
 C         4.008841        -0.757249        -1.097782
 C         2.538523        -0.073166        -1.248310
 C         3.035603         1.174809        -0.550405
 O         1.793295         1.407488         0.183369
 H        -0.482410        -0.684363         0.510393
 H        -0.198822         0.652260        -0.727575
 H         0.029147        -1.153129        -1.079827
 H         1.620177        -0.163628         1.952654
 H         1.909991        -1.796688         1.389937
 H         5.067835         0.557999         0.545185
 H         4.585631        -0.358838        -2.008120
 H         4.042320        -1.898784        -1.033168
 H         1.933126         0.032532        -2.201777
 H         3.341417         2.091880        -1.071874
