19
Iteration:  4775
 C         0.002587        -0.393306        -0.191992
 C         1.546233         0.002615        -0.091872
 C         2.144812         0.037658         1.322207
 O         3.511961         0.575196         1.335343
 C         4.078753         0.080649         0.041127
 C         3.799964        -1.329372        -0.305098
 C         2.581129        -0.784475        -0.964549
 C         3.170486         0.687116        -1.135103
 O         2.072530         1.329522        -0.559462
 H        -0.221241        -1.434008        -0.725509
 H        -0.275961        -0.623571         0.864986
 H        -0.665518         0.356755        -0.660358
 H         1.662413         0.653813         2.020463
 H         2.121146        -0.945479         1.770604
 H         5.110996         0.523564         0.134584
 H         4.491618        -1.587780        -1.144398
 H         3.823375        -2.232497         0.441293
 H         1.914973        -1.403753        -1.676502
 H         3.768948         1.324706        -1.893637
