19
Iteration:  4641
 C         0.077056        -0.389357        -0.184163
 C         1.510222         0.016825        -0.077600
 C         2.187608        -0.079518         1.413774
 O         3.515983         0.431121         1.331754
 C         4.088393         0.075436         0.097163
 C         3.797651        -1.271696        -0.371004
 C         2.601545        -0.665718        -1.102205
 C         3.149981         0.763237        -1.043081
 O         1.952100         1.344857        -0.588793
 H        -0.587499         0.443930        -0.389067
 H         0.068325        -1.010562        -1.063663
 H        -0.201388        -0.819681         0.806411
 H         1.724224         0.562307         2.106733
 H         2.307421        -1.136739         1.763627
 H         5.109417         0.360861         0.102169
 H         4.626246        -1.649733        -0.953680
 H         3.707683        -2.094297         0.428894
 H         2.079672        -1.041623        -1.943491
 H         3.689951         1.293384        -1.896932
