19
Iteration:  2351
 C         0.136521        -0.359295        -0.333408
 C         1.563933        -0.127528        -0.101348
 C         2.167544        -0.726855         1.193603
 O         3.562668        -0.478531         1.319026
 C         4.059408         0.241263         0.103230
 C         3.956908        -0.731036        -1.042302
 C         2.547165        -0.080168        -1.299080
 C         3.049540         1.223566        -0.558503
 O         1.891651         1.383985         0.186787
 H        -0.413685        -0.951587         0.361484
 H        -0.349048         0.564056        -0.281735
 H        -0.142891        -0.796861        -1.320900
 H         1.637131        -0.501204         2.138739
 H         2.153902        -1.872811         1.230737
 H         5.034627         0.711121         0.411252
 H         4.510879        -0.416599        -2.045150
 H         3.942035        -1.787594        -0.864222
 H         2.057099        -0.034057        -2.321231
 H         3.495462         2.005793        -1.273354
