19
Iteration:  4351
 C         0.073233        -0.345846        -0.158988
 C         1.549901        -0.068767         0.012449
 C         2.146695        -0.237782         1.311261
 O         3.500637         0.132273         1.439821
 C         4.108749         0.147376         0.095616
 C         3.921609        -1.142733        -0.697103
 C         2.554213        -0.539993        -1.254435
 C         3.146870         0.893215        -0.895064
 O         1.916486         1.377442        -0.385587
 H        -0.197711        -1.446335        -0.098899
 H        -0.591677         0.185988         0.546351
 H        -0.071125         0.010982        -1.177693
 H         1.714533         0.422055         2.148649
 H         2.062185        -1.192553         1.847366
 H         5.057719         0.651399         0.285909
 H         4.648093        -1.228076        -1.634272
 H         4.030544        -2.118341        -0.190115
 H         2.005574        -0.651764        -2.226478
 H         3.616504         1.447338        -1.677751
