19
Iteration:  1621
 C         0.108779        -0.299611        -0.350393
 C         1.549195        -0.089744        -0.065788
 C         2.278472        -0.894765         1.073735
 O         3.543626        -0.289860         1.371662
 C         4.148402         0.237022         0.171023
 C         3.897151        -0.826250        -1.065461
 C         2.513445        -0.040178        -1.284567
 C         3.015233         1.201648        -0.586611
 O         1.844637         1.362247         0.194974
 H        -0.560829        -0.443412         0.496133
 H        -0.244158         0.560534        -0.951279
 H         0.175010        -1.146155        -0.992122
 H         1.855274        -0.967136         2.113028
 H         2.431062        -1.913945         0.733053
 H         5.121678         0.558699         0.460941
 H         4.500660        -0.663804        -1.894163
 H         3.918075        -1.849591        -0.685161
 H         1.986194        -0.157171        -2.293183
 H         3.437682         2.101624        -1.079960
