19
Iteration:  3215
 C         0.159053        -0.373538        -0.141341
 C         1.616773        -0.011174        -0.121869
 C         2.223186        -0.780120         1.052914
 O         3.568521        -0.393306         1.355165
 C         4.079866         0.134893         0.190597
 C         3.887065        -0.797655        -1.046547
 C         2.527201        -0.040315        -1.302655
 C         3.092772         1.197755        -0.573851
 O         1.800835         1.446364         0.039517
 H        -0.111822        -1.159694         0.620188
 H        -0.633327         0.480388        -0.038493
 H        -0.040935        -0.934644        -1.062036
 H         1.586338        -0.444374         1.901338
 H         2.139921        -1.837877         0.791249
 H         5.113703         0.373030         0.346336
 H         4.570670        -0.802412        -1.945417
 H         3.892321        -1.862985        -0.817219
 H         1.898844        -0.051035        -2.259192
 H         3.608485         2.128860        -0.869803
