19
Iteration:  2935charge 0 multiplicity 1
 C         0.067659        -0.347095        -0.326551
 C         1.564204        -0.124622        -0.058652
 C         2.196332        -0.785907         1.177034
 O         3.609386        -0.568113         1.244249
 C         4.109123         0.298143         0.119514
 C         3.974847        -0.656109        -1.104107
 C         2.524107        -0.058188        -1.260398
 C         3.046902         1.207347        -0.567408
 O         1.854106         1.390910         0.259453
 H         0.021348        -0.089580        -1.354090
 H        -0.331110        -1.370785        -0.107014
 H        -0.490584         0.361693         0.308820
 H         1.621554        -0.387028         2.023074
 H         1.985189        -1.882609         0.886236
 H         5.004313         0.816444         0.568343
 H         4.481809        -0.508567        -2.081170
 H         4.042438        -1.773474        -1.016336
 H         1.920386        -0.070377        -2.170506
 H         3.498894         2.020999        -1.193668
