19
Iteration:  2444
 C         0.024144        -0.273886        -0.342343
 C         1.612384        -0.084081        -0.067804
 C         2.217811        -0.844508         1.211595
 O         3.616091        -0.469206         1.260865
 C         4.085176         0.229397         0.127124
 C         3.984842        -0.724031        -1.095623
 C         2.525814        -0.091923        -1.238758
 C         3.026013         1.184591        -0.546893
 O         1.807815         1.413950         0.166038
 H        -0.736809         0.031510         0.458173
 H        -0.123476         0.264250        -1.342378
 H         0.027711        -1.318917        -0.581998
 H         1.780518        -0.641595         2.210738
 H         2.211357        -1.940151         1.127537
 H         5.042509         0.639913         0.460827
 H         4.578973        -0.282679        -1.916882
 H         4.159441        -1.867971        -1.013901
 H         2.081626        -0.140077        -2.209333
 H         3.444065         2.081255        -0.918735
