19
Iteration:  4014
 C         0.089724        -0.279762        -0.104191
 C         1.588816        -0.117010        -0.080224
 C         2.120071        -0.530349         1.212286
 O         3.506127        -0.058254         1.366729
 C         4.103857         0.166788         0.088290
 C         3.972362        -0.991119        -0.943909
 C         2.577799        -0.341759        -1.283038
 C         3.108872         1.002636        -0.735599
 O         1.865566         1.369331        -0.084425
 H        -0.241741         0.721264        -0.324733
 H        -0.151115        -1.032430        -0.780911
 H        -0.397967        -0.603659         0.755222
 H         1.482369         0.111688         1.795938
 H         2.033431        -1.597335         1.469399
 H         5.167404         0.516193         0.274226
 H         4.608882        -0.637515        -1.750880
 H         3.983866        -2.030378        -0.489616
 H         2.237620        -0.495573        -2.315245
 H         3.555322         1.851148        -1.330951
