19
Iteration:  1132
 C         0.152911        -0.349919        -0.434283
 C         1.534606        -0.112390        -0.121838
 C         2.266658        -1.042785         0.978668
 O         3.589483        -0.408005         1.266231
 C         4.095970         0.223710         0.126514
 C         3.815038        -0.673752        -1.191111
 C         2.558838         0.151601        -1.255452
 C         3.017434         1.328157        -0.391502
 O         1.864929         1.266206         0.449474
 H        -0.334237         0.592634        -0.186281
 H        -0.182493        -0.603702        -1.545175
 H        -0.292952        -1.135285         0.187822
 H         1.844043        -1.117039         2.034814
 H         2.467998        -2.066838         0.537221
 H         5.156761         0.555141         0.317270
 H         4.613799        -0.377962        -1.887080
 H         3.756123        -1.822283        -1.103882
 H         2.004741         0.251061        -2.078033
 H         3.361714         2.385604        -0.579464
