19
Iteration:  4546charge 0 multiplicity 1
 C         0.083208        -0.269595        -0.182286
 C         1.585169        -0.016971         0.001255
 C         2.172715        -0.198275         1.350225
 O         3.458086         0.341621         1.330487
 C         4.072090         0.213904         0.088848
 C         3.844778        -1.227309        -0.470236
 C         2.571802        -0.658701        -1.109899
 C         3.121610         0.757088        -1.039539
 O         1.999765         1.306142        -0.466458
 H         0.025566        -1.420611        -0.140286
 H        -0.584591         0.008160         0.638429
 H        -0.228143         0.209426        -1.146561
 H         1.654706         0.441731         2.084995
 H         2.093441        -1.239681         1.520703
 H         5.069410         0.640669         0.266915
 H         4.608325        -1.544620        -1.199769
 H         3.739298        -2.131511         0.106427
 H         2.327658        -1.193541        -2.125757
 H         3.517079         1.374507        -1.839588
