19
Iteration:   302charge 0 multiplicity 1
 C         0.083053        -0.306833        -0.363545
 C         1.556562        -0.093353        -0.191256
 C         2.235617        -1.140683         0.704087
 O         3.652241        -0.690849         1.124107
 C         4.144357         0.209756         0.171460
 C         3.925983        -0.346025        -1.208535
 C         2.555277         0.291061        -1.303219
 C         2.956078         1.319436        -0.121412
 O         1.803160         1.162613         0.614413
 H        -0.208669        -0.801684         0.615779
 H        -0.539190         0.634298        -0.269938
 H        -0.088296        -0.848313        -1.255355
 H         1.591635        -1.329434         1.672362
 H         2.354273        -2.129682         0.165571
 H         5.091909         0.524839         0.597786
 H         4.575211         0.243089        -1.890843
 H         4.001983        -1.417603        -1.386399
 H         2.169531         0.664895        -2.326368
 H         3.247047         2.384453        -0.308504
