19
Iteration:  1618
 C         0.081644        -0.286820        -0.348942
 C         1.559411        -0.071529        -0.048904
 C         2.282623        -0.888021         1.084909
 O         3.533279        -0.301729         1.359572
 C         4.154768         0.223290         0.181600
 C         3.907754        -0.814060        -1.054707
 C         2.527760        -0.051470        -1.288782
 C         3.030877         1.197656        -0.580630
 O         1.833551         1.347788         0.181686
 H        -0.555253        -0.452964         0.612593
 H        -0.209338         0.514529        -0.987296
 H         0.180584        -1.230136        -0.912166
 H         1.818028        -0.880680         2.004878
 H         2.359517        -1.962080         0.678245
 H         5.154596         0.652097         0.401985
 H         4.491026        -0.618585        -2.030265
 H         3.965990        -1.826323        -0.667626
 H         1.948555        -0.148550        -2.379687
 H         3.400120         2.200925        -1.037389
