19
Iteration:  1587charge 0 multiplicity 1
 C         0.064556        -0.338406        -0.212612
 C         1.571208        -0.176680        -0.152188
 C         2.166759        -0.799398         1.119600
 O         3.482298        -0.442502         1.307332
 C         4.123966         0.195748         0.245767
 C         4.045663        -0.689289        -1.111371
 C         2.608652        -0.021792        -1.375972
 C         3.038027         1.179738        -0.584555
 O         1.859957         1.396249         0.183087
 H        -0.283134         0.242753         0.699906
 H        -0.333829        -0.165235        -1.180945
 H        -0.089765        -1.340257         0.098248
 H         1.521141        -0.395448         1.938836
 H         2.003894        -1.882221         1.083063
 H         4.995277         0.721159         0.538432
 H         4.612665        -0.497060        -1.994192
 H         4.252990        -1.740238        -0.940195
 H         2.025937         0.119979        -2.445507
 H         3.356998         2.163007        -1.118234
