19
Iteration:  1571
 C         0.110102        -0.387697        -0.175592
 C         1.596533        -0.041899        -0.120318
 C         2.091333        -0.802137         1.116102
 O         3.511516        -0.476544         1.347774
 C         4.058231         0.230353         0.128981
 C         3.984263        -0.653289        -1.127055
 C         2.631549        -0.036109        -1.344289
 C         3.086823         1.217872        -0.558206
 O         1.849714         1.314771         0.137841
 H        -0.389962         0.490153         0.209147
 H        -0.198671        -0.457949        -1.290587
 H        -0.190376        -1.320948         0.425891
 H         1.595519        -0.428450         1.986345
 H         1.951656        -1.928670         1.071849
 H         5.115738         0.482437         0.489523
 H         4.817688        -0.175379        -1.751409
 H         4.001369        -1.760407        -0.990635
 H         2.196428        -0.037780        -2.365892
 H         3.576513         2.085903        -0.920747
