19
Iteration:  2900charge 0 multiplicity 1
 C         0.105361        -0.333126        -0.288727
 C         1.632285        -0.172481        -0.104000
 C         2.289559        -0.836267         1.015002
 O         3.474519        -0.251739         1.360473
 C         4.098394         0.153587         0.137380
 C         3.862427        -0.765663        -1.177183
 C         2.527602        -0.003220        -1.325853
 C         3.075424         1.196268        -0.517255
 O         1.864369         1.315052         0.349797
 H        -0.170549        -0.335143        -1.365759
 H        -0.454878        -1.189307         0.125729
 H        -0.272736         0.586096         0.021374
 H         1.706779        -0.879697         1.937930
 H         2.494642        -1.900278         0.808171
 H         5.060102         0.560603         0.321716
 H         4.562912        -0.304879        -1.932943
 H         3.834864        -1.850960        -1.230855
 H         1.987500         0.090696        -2.318357
 H         3.698014         2.030700        -0.921556
