19
Iteration:  1484
 C         0.086169        -0.353487        -0.356332
 C         1.507071        -0.074080        -0.109669
 C         2.237019        -0.858191         1.116775
 O         3.554323        -0.386229         1.359791
 C         4.123925         0.208235         0.194042
 C         3.932339        -0.698416        -1.153938
 C         2.565044        -0.013292        -1.311801
 C         3.060359         1.205325        -0.499707
 O         1.863922         1.311663         0.226472
 H        -0.168015        -0.225328        -1.360907
 H        -0.315193        -1.329564        -0.063471
 H        -0.497805         0.348588         0.300819
 H         1.723684        -0.721011         1.989161
 H         2.179215        -1.968424         0.857769
 H         5.161625         0.586604         0.278557
 H         4.624819        -0.337609        -1.962186
 H         4.000058        -1.797414        -1.099569
 H         1.980078         0.142976        -2.377587
 H         3.441390         2.188527        -0.817070
