19
Iteration:  1693
 C         0.104179        -0.423267        -0.247246
 C         1.596516        -0.014984        -0.087500
 C         2.172893        -0.740381         1.119826
 O         3.577503        -0.528436         1.328217
 C         4.068116         0.201828         0.210439
 C         3.953936        -0.692351        -1.067417
 C         2.544534        -0.110555        -1.362915
 C         3.091025         1.201521        -0.541417
 O         1.816455         1.452090         0.076686
 H        -0.265148        -0.710371         0.814465
 H        -0.505873         0.412232        -0.452872
 H         0.196034        -1.292995        -0.934677
 H         1.478035        -0.417777         2.006823
 H         2.011262        -1.876017         1.014787
 H         5.113258         0.589604         0.409302
 H         4.777837        -0.293253        -1.830309
 H         3.893502        -1.774977        -0.916374
 H         2.139602        -0.002785        -2.302534
 H         3.447203         2.213797        -0.904988
