19
Iteration:  3347charge 0 multiplicity 1
 C         0.138347        -0.400013        -0.247821
 C         1.585557        -0.034235        -0.097303
 C         2.235153        -0.739007         1.195610
 O         3.538183        -0.199490         1.402874
 C         4.059632         0.173564         0.147973
 C         3.818373        -0.895660        -1.092664
 C         2.576510        -0.076719        -1.360240
 C         3.148014         1.112945        -0.635547
 O         1.872497         1.375993         0.086617
 H        -0.235244        -0.508542        -1.270137
 H        -0.098094        -1.345399         0.284361
 H        -0.475536         0.379567         0.284550
 H         1.581347        -0.579803         2.074758
 H         2.110035        -1.847740         1.161591
 H         5.029883         0.675046         0.280285
 H         4.657785        -0.602280        -1.728054
 H         3.552501        -1.864292        -0.790905
 H         1.954420        -0.212029        -2.333589
 H         3.581095         2.087050        -1.046338
