19
Iteration:  3450
 C         0.038437        -0.377021        -0.157829
 C         1.563019        -0.013377        -0.103553
 C         2.194244        -0.716246         1.159984
 O         3.568033        -0.240467         1.361585
 C         4.122032         0.185978         0.133917
 C         3.888861        -0.915803        -0.911946
 C         2.600956        -0.183367        -1.292036
 C         3.097696         1.122906        -0.732576
 O         1.835666         1.474196        -0.039386
 H        -0.326766        -0.053819         0.845952
 H        -0.460110        -0.037319        -1.098509
 H        -0.026576        -1.494887        -0.123218
 H         1.538173        -0.319726         1.939485
 H         2.154326        -1.812423         1.067249
 H         5.182221         0.542895         0.343901
 H         4.692213        -1.052092        -1.597432
 H         3.817599        -1.873390        -0.448481
 H         2.257262        -0.084697        -2.309700
 H         3.612010         1.909136        -1.263069
