19
Iteration:  4906charge 0 multiplicity 1
 C         0.046465        -0.329844        -0.242328
 C         1.551352        -0.021883        -0.043134
 C         2.156540         0.110921         1.340154
 O         3.595471         0.604155         1.315850
 C         4.199646         0.146335         0.071886
 C         3.768299        -1.345091        -0.199189
 C         2.589295        -0.811035        -0.898115
 C         3.167630         0.631476        -1.161526
 O         1.888495         1.218307        -0.681713
 H        -0.572627        -0.297556         0.652205
 H        -0.396330         0.428912        -0.831306
 H        -0.124071        -1.226438        -0.738317
 H         1.617095         0.870881         1.866634
 H         2.179224        -0.914384         1.868700
 H         5.254465         0.403384         0.261546
 H         4.440310        -1.957291        -0.854105
 H         3.419433        -1.907421         0.753987
 H         2.026156        -1.353479        -1.707053
 H         3.632641         0.937601        -2.190932
