19
Iteration:   805
 C         0.103112        -0.406688        -0.374059
 C         1.576211        -0.025322        -0.111352
 C         2.209795        -0.941078         0.984973
 O         3.579785        -0.598934         1.255443
 C         4.118403         0.179411         0.166685
 C         3.920416        -0.600054        -1.240303
 C         2.575489         0.196586        -1.322894
 C         3.051706         1.272446        -0.302007
 O         1.776509         1.303113         0.397340
 H        -0.123465        -0.429429        -1.438307
 H        -0.156425        -1.395420         0.055133
 H        -0.595254         0.224667         0.128217
 H         1.793600        -0.745365         1.903457
 H         2.258451        -2.045063         0.744804
 H         5.001532         0.760804         0.421112
 H         4.646666        -0.063577        -2.018956
 H         4.214410        -1.646316        -1.367263
 H         2.088536         0.354574        -2.215439
 H         3.470337         2.295789        -0.589798
