19
Iteration:  4618charge 0 multiplicity 1
 C         0.093009        -0.375256        -0.108135
 C         1.555748        -0.037057        -0.099687
 C         2.091179        -0.065845         1.332382
 O         3.452513         0.402137         1.415793
 C         4.169195         0.224234         0.107356
 C         3.813663        -1.290092        -0.496751
 C         2.570881        -0.715391        -1.080229
 C         3.172929         0.701049        -1.059986
 O         2.012331         1.361108        -0.530228
 H        -0.351859         0.248625        -0.825467
 H         0.015094        -1.357925        -0.533756
 H        -0.317777        -0.157301         0.876337
 H         1.470692         0.646288         1.863865
 H         2.090163        -1.100099         1.740627
 H         5.112811         0.715244         0.230322
 H         4.406174        -1.701339        -1.346735
 H         3.851484        -2.203540         0.203166
 H         2.095853        -1.132202        -1.891392
 H         3.557581         1.242392        -1.975915
