19
Iteration:   360charge 0 multiplicity 1
 C         0.109857        -0.413803        -0.401113
 C         1.528580        -0.050761        -0.078527
 C         2.247389        -1.020503         0.807355
 O         3.637289        -0.748855         1.131584
 C         4.130310         0.173710         0.184194
 C         3.943506        -0.350114        -1.291407
 C         2.503293         0.312710        -1.292025
 C         3.032372         1.294753        -0.163666
 O         1.781270         1.214086         0.599156
 H        -0.192970        -1.396032        -0.137966
 H        -0.579640         0.492930         0.027315
 H        -0.221533        -0.414541        -1.434840
 H         1.699252        -1.248154         1.775890
 H         2.430783        -1.996875         0.166135
 H         4.961635         0.621302         0.682753
 H         4.649368         0.194891        -2.076340
 H         4.062055        -1.400980        -1.622216
 H         2.049916         0.784955        -2.104319
 H         3.464056         2.240512        -0.459143
