19
Iteration:  3603
 C         0.131116        -0.302569        -0.318031
 C         1.539172        -0.053420        -0.008375
 C         2.247575        -0.641217         1.297377
 O         3.501328        -0.011508         1.315462
 C         4.102850         0.208291         0.093403
 C         3.890943        -0.995392        -0.897403
 C         2.524488        -0.253104        -1.319299
 C         3.075827         1.096460        -0.756806
 O         1.917930         1.280459         0.028246
 H         0.068419        -1.239784        -0.883119
 H        -0.439495        -0.531065         0.632528
 H        -0.222620         0.588720        -0.792589
 H         1.718464        -0.356880         2.257433
 H         2.152704        -1.788293         1.582028
 H         5.211084         0.394615         0.315877
 H         4.514248        -1.109921        -1.827515
 H         3.624806        -1.938179        -0.479644
 H         2.054771        -0.265079        -2.325090
 H         3.430854         1.935023        -1.404414
