19
Iteration:  4035charge 0 multiplicity 1
 C        -0.021137        -0.394971        -0.190530
 C         1.552087        -0.003141        -0.054626
 C         2.150492        -0.571053         1.293066
 O         3.541907        -0.005452         1.372005
 C         4.142459         0.139106         0.154920
 C         3.883649        -1.036512        -0.920941
 C         2.574182        -0.272647        -1.283902
 C         3.117320         1.071561        -0.827084
 O         1.946917         1.379810        -0.118618
 H        -0.561835         0.510110         0.030904
 H        -0.333824        -0.851093        -1.083987
 H        -0.251407        -1.069789         0.613325
 H         1.708461        -0.346122         2.256483
 H         2.364296        -1.593089         1.239201
 H         5.182571         0.429727         0.320133
 H         4.616299        -0.973328        -1.752128
 H         3.714354        -1.953866        -0.338706
 H         2.280128        -0.440307        -2.305186
 H         3.635496         1.813590        -1.424599
