19
Iteration:  2489charge 0 multiplicity 1
 C         0.134813        -0.377965        -0.275831
 C         1.556787        -0.047289        -0.090203
 C         2.198689        -0.888717         1.074831
 O         3.473838        -0.338820         1.286678
 C         4.046857         0.214921         0.087952
 C         3.923337        -0.759562        -1.104340
 C         2.622346         0.005473        -1.324358
 C         3.086330         1.250493        -0.501229
 O         1.870525         1.303133         0.270765
 H        -0.167072         0.698889        -0.062807
 H        -0.128731        -0.768159        -1.300323
 H        -0.024189        -1.013915         0.544115
 H         1.618292        -0.585016         2.017051
 H         2.129103        -1.958818         0.948250
 H         5.121532         0.454566         0.390463
 H         4.602474        -0.558140        -1.908871
 H         3.945810        -1.936524        -1.056406
 H         2.106151        -0.008407        -2.297600
 H         3.417234         2.169057        -0.921367
