19
Iteration:   232
 C         0.059252        -0.424812        -0.418524
 C         1.523396        -0.108011        -0.109300
 C         2.202375        -1.097409         0.858589
 O         3.635940        -0.795446         1.054223
 C         4.184427         0.211885         0.149064
 C         3.933257        -0.284632        -1.317148
 C         2.617900         0.473857        -1.258269
 C         3.013994         1.295032        -0.102224
 O         1.756331         1.189741         0.595241
 H        -0.570842        -0.061694         0.351681
 H        -0.374408        -0.052085        -1.266417
 H         0.054316        -1.594757        -0.527970
 H         1.829592        -1.149675         1.876051
 H         2.212484        -2.090791         0.417692
 H         5.230157         0.505390         0.516830
 H         4.459412         0.139058        -2.078039
 H         3.891925        -1.367377        -1.360543
 H         2.116428         0.949557        -2.130052
 H         3.422882         2.297428        -0.137195
