19
Iteration:  3412charge 0 multiplicity 1
 C         0.072441        -0.296956        -0.261830
 C         1.611388        -0.131559        -0.063221
 C         2.121058        -0.726355         1.215324
 O         3.523530        -0.186149         1.407724
 C         4.144883         0.180537         0.132735
 C         3.941051        -0.829137        -0.999297
 C         2.559197        -0.215909        -1.326946
 C         3.052227         1.110914        -0.742380
 O         1.921407         1.367287         0.084101
 H        -0.460601         0.628737        -0.257945
 H        -0.358252        -0.632513        -1.207649
 H        -0.262596        -0.842268         0.618008
 H         1.594169        -0.186190         2.042836
 H         2.166706        -1.834348         1.399697
 H         5.187057         0.442128         0.268182
 H         4.511599        -0.346718        -1.814271
 H         3.981154        -1.955174        -0.951413
 H         1.988277        -0.468435        -2.263871
 H         3.474020         1.890713        -1.482882
