19
Iteration:   742
 C         0.073024        -0.351898        -0.343346
 C         1.561892        -0.132182        -0.125258
 C         2.271729        -0.988350         0.893593
 O         3.537087        -0.501082         1.289552
 C         4.111229         0.181290         0.186157
 C         3.973086        -0.531501        -1.159739
 C         2.513785         0.169221        -1.329650
 C         3.080657         1.272162        -0.370011
 O         1.845755         1.242246         0.426010
 H        -0.160074        -0.784913        -1.294812
 H        -0.456036        -1.092577         0.448810
 H        -0.264853         0.711330        -0.303411
 H         1.655314        -1.077852         1.768091
 H         2.145278        -1.965204         0.467296
 H         5.159392         0.473895         0.528097
 H         4.452100        -0.021045        -2.043921
 H         3.983659        -1.588210        -1.349299
 H         2.024539         0.410685        -2.316888
 H         3.276965         2.331450        -0.690086
