19
Iteration:  2991charge 0 multiplicity 1
 C         0.068996        -0.424175        -0.242113
 C         1.586271        -0.082374        -0.148244
 C         2.260799        -0.842193         1.112766
 O         3.511363        -0.310111         1.375493
 C         4.087498         0.124140         0.088494
 C         3.876592        -0.743200        -1.146849
 C         2.550404         0.023783        -1.350291
 C         3.140252         1.163842        -0.499295
 O         1.875556         1.416933         0.233508
 H        -0.516992         0.425449        -0.510486
 H        -0.038982        -1.126343        -1.068465
 H        -0.348515        -0.903914         0.699581
 H         1.535294        -0.538612         1.861443
 H         2.150476        -1.942685         1.047868
 H         5.160632         0.320838         0.407204
 H         4.480999        -0.272716        -1.903067
 H         3.774634        -1.847867        -1.078042
 H         2.154246         0.159135        -2.341974
 H         3.573610         2.073632        -0.956106
