19
Iteration:   885charge 0 multiplicity 1
 C         0.078184        -0.293635        -0.462627
 C         1.558909        -0.113974        -0.093323
 C         2.327532        -1.045234         0.946807
 O         3.537527        -0.369767         1.279619
 C         4.106844         0.230236         0.137893
 C         3.825287        -0.625317        -1.140786
 C         2.520969         0.088167        -1.274727
 C         3.062803         1.294029        -0.359727
 O         1.874728         1.212621         0.444501
 H        -0.313387         0.690891        -0.809274
 H        -0.101283        -0.991141        -1.365562
 H        -0.553593        -0.462218         0.474483
 H         1.943020        -1.443582         1.846353
 H         2.626058        -2.111617         0.537557
 H         5.165844         0.587961         0.294502
 H         4.515907        -0.293502        -2.108659
 H         3.842174        -1.756383        -0.953482
 H         2.043069         0.285250        -2.124984
 H         3.431277         2.284288        -0.733901
