19
Iteration:  1282
 C         0.084446        -0.269909        -0.392982
 C         1.502006        -0.111502        -0.063139
 C         2.273444        -1.038158         0.951707
 O         3.566755        -0.380855         1.287170
 C         4.117859         0.247994         0.081928
 C         3.934290        -0.684915        -1.067762
 C         2.599427         0.040558        -1.244543
 C         3.038095         1.300359        -0.457915
 O         1.831065         1.305202         0.377623
 H        -0.393315        -0.801590         0.545601
 H        -0.438182         0.637420        -0.458881
 H        -0.215237        -1.016789        -1.158491
 H         1.595224        -1.216266         1.869499
 H         2.395202        -2.027588         0.398069
 H         5.159090         0.441704         0.402308
 H         4.530387        -0.592433        -2.010396
 H         3.894922        -1.779400        -0.906014
 H         2.212359         0.232415        -2.412369
 H         3.265100         2.212859        -0.911485
