19
Iteration:  1920charge 0 multiplicity 1
 C         0.049092        -0.428902        -0.273394
 C         1.562477        -0.048412        -0.120302
 C         2.172570        -0.797619         1.122452
 O         3.536172        -0.360870         1.418786
 C         4.119344         0.139797         0.117412
 C         3.956061        -0.774089        -1.117961
 C         2.556889        -0.001850        -1.302147
 C         3.097266         1.233385        -0.572201
 O         1.846315         1.376035         0.158702
 H        -0.398462        -0.412771         0.735904
 H        -0.267128         0.325922        -0.947270
 H         0.106440        -1.351754        -0.865384
 H         1.694061        -0.576915         2.032511
 H         2.199850        -1.980310         0.960965
 H         5.118044         0.641942         0.455036
 H         4.619618        -0.541462        -1.929324
 H         3.934608        -1.867013        -0.909730
 H         2.170319         0.154951        -2.389051
 H         3.498961         2.187943        -0.954838
