19
Iteration:  1471
 C        -0.012874        -0.333077        -0.270470
 C         1.614717        -0.089949        -0.058065
 C         2.206598        -0.869677         1.043614
 O         3.585621        -0.466080         1.293284
 C         4.091049         0.167300         0.150588
 C         3.965314        -0.628083        -1.065677
 C         2.595728        -0.019606        -1.327463
 C         3.081326         1.217135        -0.498248
 O         1.788652         1.388486         0.177363
 H        -0.165144        -0.405904        -1.308926
 H        -0.116724        -1.352973         0.233914
 H        -0.631999         0.490991         0.139290
 H         1.592850        -0.617887         1.910967
 H         2.221246        -1.972231         0.929887
 H         5.020437         0.481037         0.641136
 H         4.675311        -0.206639        -1.788004
 H         4.208833        -1.745473        -0.998379
 H         2.163037        -0.094933        -2.371009
 H         3.503308         2.026402        -0.939078
