19
Iteration:   830
 C         0.075718        -0.424458        -0.226919
 C         1.570495        -0.096421        -0.123224
 C         2.106760        -0.971868         0.982827
 O         3.492530        -0.627570         1.196490
 C         4.135962         0.138004         0.177016
 C         4.015763        -0.424024        -1.191466
 C         2.631559         0.185184        -1.325031
 C         3.064401         1.284806        -0.353068
 O         1.831869         1.345303         0.311933
 H        -0.310928        -0.232507        -1.225505
 H        -0.118885        -1.604902        -0.055493
 H        -0.618520        -0.022581         0.599479
 H         1.721530        -0.677428         1.942682
 H         2.129570        -2.056647         0.885107
 H         5.138112         0.596975         0.433511
 H         4.810781        -0.076816        -1.986778
 H         4.195215        -1.537288        -1.316982
 H         2.132758         0.323621        -2.167969
 H         3.482513         2.193380        -0.851021
