19
Iteration:   391charge 0 multiplicity 1
 C         0.251414        -0.399789        -0.475680
 C         1.633435        -0.111325        -0.141192
 C         2.307155        -1.142448         0.794293
 O         3.529137        -0.618820         1.187780
 C         4.139945         0.166820         0.152249
 C         3.750360        -0.455341        -1.257110
 C         2.459470         0.428918        -1.276069
 C         3.059856         1.443221        -0.174241
 O         1.837254         1.130677         0.632961
 H         0.002929        -1.476923        -0.456803
 H        -0.520396         0.252804         0.281155
 H         0.024730         0.095606        -1.336027
 H         1.605720        -1.421271         1.743043
 H         2.518287        -2.131686         0.365531
 H         5.126154         0.495862         0.309346
 H         4.483450        -0.240810        -2.100140
 H         3.512585        -1.478153        -1.224807
 H         1.875424         0.702589        -2.243431
 H         3.255078         2.529787        -0.250429
