19
Iteration:  3994
 C         0.075576        -0.247678        -0.233406
 C         1.578938        -0.066927        -0.056111
 C         2.210451        -0.544767         1.348422
 O         3.541905        -0.208255         1.408075
 C         4.076909         0.253787         0.111234
 C         3.955728        -0.945120        -0.885975
 C         2.568649        -0.363590        -1.315250
 C         3.066573         1.037864        -0.853757
 O         1.892966         1.369574        -0.103040
 H        -0.410782         0.580164        -0.823787
 H        -0.207178        -1.291108        -0.515405
 H        -0.352394        -0.157803         0.748254
 H         1.687553        -0.146685         2.217128
 H         2.031063        -1.683747         1.243980
 H         5.067941         0.801542         0.410079
 H         4.614517        -0.783646        -1.738770
 H         3.935199        -2.008319        -0.479019
 H         1.885211        -0.600213        -2.127880
 H         3.365785         1.918635        -1.534699
