19
Iteration:  4828
 C         0.010743        -0.232145        -0.086004
 C         1.537040        -0.017206        -0.125342
 C         2.126929         0.081472         1.329778
 O         3.587863         0.459935         1.443452
 C         4.165533         0.153602         0.142175
 C         3.893724        -1.304571        -0.274007
 C         2.635261        -0.869930        -1.087612
 C         3.129234         0.633040        -1.129328
 O         1.861910         1.266459        -0.737867
 H        -0.364110         0.299955        -0.942591
 H        -0.266679        -1.229397        -0.160169
 H        -0.535763         0.251930         0.710453
 H         1.698418         0.866719         1.929288
 H         1.955535        -0.910288         1.787173
 H         5.090070         0.759919         0.167590
 H         4.701129        -1.803558        -0.852299
 H         3.680259        -2.138252         0.558471
 H         2.209365        -1.358276        -1.957594
 H         3.621582         1.015102        -2.124281
