19
Iteration:  4611
 C         0.136800        -0.310394        -0.112073
 C         1.519859        -0.055542        -0.115703
 C         2.083252        -0.083016         1.370945
 O         3.436073         0.386641         1.425544
 C         4.156747         0.178440         0.108153
 C         3.869171        -1.281147        -0.533782
 C         2.614594        -0.720552        -1.053105
 C         3.095717         0.779366        -1.065139
 O         2.032124         1.335871        -0.558538
 H        -0.398872         0.114893        -1.082705
 H        -0.040001        -1.451582        -0.188008
 H        -0.376406        -0.005440         0.892898
 H         1.488910         0.603708         1.974413
 H         2.009159        -1.087322         2.004631
 H         5.157292         0.630612         0.082703
 H         4.470244        -1.675248        -1.320292
 H         3.799193        -2.054247         0.225026
 H         2.099139        -1.166913        -2.017346
 H         3.554709         1.157556        -1.987469
