19
Iteration:  3636charge 0 multiplicity 1
 C         0.091122        -0.351681        -0.365825
 C         1.523881         0.031853        -0.021550
 C         2.230921        -0.616399         1.271361
 O         3.662420        -0.153130         1.391768
 C         4.088611         0.191514         0.059081
 C         3.968980        -1.013395        -0.892485
 C         2.438078        -0.350537        -1.259006
 C         2.987884         1.085023        -0.713566
 O         1.866320         1.488571         0.002918
 H         0.154846        -1.235455        -0.999980
 H        -0.628337        -0.424088         0.512882
 H        -0.392283         0.420572        -0.938354
 H         1.777467        -0.145821         2.189980
 H         2.265447        -1.830990         1.131638
 H         5.125075         0.511474         0.442002
 H         4.639887        -0.908970        -1.852123
 H         4.057421        -1.995948        -0.450973
 H         2.114524        -0.645474        -2.258268
 H         3.435950         1.873556        -1.357320
