19
Iteration:   293charge 0 multiplicity 1
 C         0.021005        -0.350811        -0.438810
 C         1.584209        -0.121876        -0.142432
 C         2.331152        -1.145342         0.724059
 O         3.592468        -0.637557         1.126172
 C         4.158012         0.177790         0.164588
 C         3.853526        -0.391215        -1.231181
 C         2.540745         0.347893        -1.212028
 C         3.070056         1.350165        -0.172768
 O         1.774056         1.179177         0.667333
 H        -0.347626        -0.815946         0.497390
 H        -0.424314         0.723923        -0.782255
 H        -0.235775        -0.985595        -1.218875
 H         1.766425        -1.488774         1.645138
 H         2.413314        -2.058954         0.013761
 H         5.144877         0.431285         0.389463
 H         4.503322         0.255111        -2.000711
 H         4.038591        -1.435209        -1.489570
 H         2.170372         0.583692        -2.201675
 H         3.364232         2.401941        -0.157248
