19
Iteration:  4997charge 0 multiplicity 1
 C         0.105914        -0.218481        -0.148624
 C         1.607264        -0.111516        -0.048134
 C         2.113322         0.130132         1.374733
 O         3.490599         0.614285         1.276546
 C         4.142305         0.208886         0.093395
 C         3.798576        -1.263999        -0.100796
 C         2.570556        -0.867945        -0.947429
 C         3.170256         0.483887        -1.251574
 O         1.943073         1.183482        -0.758904
 H        -0.157959        -0.344509        -1.189325
 H        -0.270986        -1.140671         0.390538
 H        -0.360445         0.688381         0.251918
 H         1.654680         1.026561         1.845666
 H         2.059397        -0.836630         1.984839
 H         5.196335         0.453833         0.109749
 H         4.587293        -1.956498        -0.584325
 H         3.513740        -1.657804         0.885802
 H         2.157043        -1.454345        -1.816293
 H         3.550338         0.835200        -2.185190
