19
Iteration:    21charge 0 multiplicity 1
 C        -0.038414        -0.315369        -0.376584
 C         1.489313        -0.114043        -0.043226
 C         2.349757        -1.227393         0.638222
 O         3.555688        -0.549472         1.219247
 C         4.197005         0.225051         0.110957
 C         3.936718        -0.332359        -1.312359
 C         2.535607         0.307081        -1.319818
 C         3.016104         1.343849        -0.166097
 O         1.868034         1.094285         0.731120
 H        -0.691819        -0.238586         0.558752
 H        -0.379528         0.461685        -1.319468
 H        -0.206284        -1.271293        -0.813742
 H         1.817769        -1.856576         1.339254
 H         2.688373        -1.993588        -0.244865
 H         5.185024         0.439027         0.510436
 H         4.618781         0.174078        -2.032850
 H         4.063462        -1.336221        -1.463217
 H         1.996128         0.505866        -2.223781
 H         3.258893         2.435513        -0.194504
