19
Iteration:  2720
 C         0.032940        -0.334308        -0.268860
 C         1.516870        -0.131898        -0.040987
 C         2.151520        -0.754443         1.107517
 O         3.592412        -0.511047         1.270823
 C         4.141555         0.224487         0.150485
 C         4.035589        -0.669648        -1.160140
 C         2.562796        -0.015091        -1.314101
 C         3.014194         1.221623        -0.513137
 O         1.847762         1.354473         0.213178
 H        -0.224416         0.018903        -1.240298
 H        -0.040364        -1.424519        -0.276686
 H        -0.552076         0.200224         0.555059
 H         1.529876        -0.606251         2.047721
 H         2.266485        -1.891988         0.914447
 H         5.142788         0.647710         0.561913
 H         4.654588        -0.714321        -2.070203
 H         4.100539        -1.776940        -0.825768
 H         2.107942         0.108998        -2.308014
 H         3.469209         2.142188        -0.959461
