19
Iteration:  3155
 C         0.095401        -0.243156        -0.350888
 C         1.618421        -0.141711        -0.088315
 C         2.196064        -0.801883         1.139263
 O         3.529625        -0.239147         1.346839
 C         4.042317         0.194401         0.080789
 C         3.919078        -0.802763        -1.157894
 C         2.552168        -0.082846        -1.262289
 C         2.970200         1.129500        -0.608965
 O         1.953956         1.292398         0.318640
 H        -0.370257         0.161725         0.561394
 H        -0.216020         0.251611        -1.231647
 H        -0.055538        -1.350488        -0.516369
 H         1.711907        -0.551367         2.102315
 H         2.241132        -1.965155         1.035476
 H         5.135182         0.543669         0.181882
 H         4.508312        -0.389995        -1.988244
 H         3.988047        -1.888758        -0.822335
 H         2.127303        -0.011395        -2.253329
 H         3.432086         2.019437        -1.059734
