19
Iteration:   992charge 0 multiplicity 1
 C         0.097436        -0.338857        -0.361687
 C         1.543806        -0.116364        -0.106796
 C         2.242263        -1.051053         0.937597
 O         3.517143        -0.497458         1.266328
 C         4.099735         0.225240         0.134924
 C         3.925242        -0.518534        -1.185945
 C         2.576387         0.143697        -1.288895
 C         3.049175         1.270987        -0.427491
 O         1.863625         1.240357         0.458117
 H        -0.255285        -0.065087        -1.285602
 H        -0.162697        -1.359225        -0.014902
 H        -0.316559         0.284425         0.396604
 H         1.691416        -1.059291         1.875348
 H         2.362522        -2.021229         0.527647
 H         5.116427         0.562762         0.458890
 H         4.564130        -0.097594        -1.934273
 H         4.013254        -1.544192        -1.302472
 H         1.936249         0.462405        -2.244767
 H         3.511727         2.250252        -0.807303
