19
Iteration:  3734
 C         0.117018        -0.277300        -0.290635
 C         1.594537        -0.028790         0.018128
 C         2.194627        -0.694883         1.203340
 O         3.577065        -0.147488         1.384797
 C         4.070792         0.210052         0.095906
 C         3.872069        -0.954798        -0.910821
 C         2.537610        -0.293720        -1.297982
 C         3.010832         1.083347        -0.759678
 O         1.903925         1.387562         0.044752
 H        -0.374333        -1.089905         0.201873
 H        -0.435193         0.703566        -0.286135
 H         0.134006        -0.667243        -1.267854
 H         1.827103        -0.352763         2.170204
 H         2.339742        -1.690411         1.065969
 H         5.037991         0.769482         0.324366
 H         4.630188        -0.897620        -1.869490
 H         4.024737        -2.006056        -0.590541
 H         1.929825        -0.338621        -2.195322
 H         3.383516         1.897518        -1.451633
