19
Iteration:  4706
 C         0.007888        -0.279815        -0.115625
 C         1.544082        -0.002860        -0.075257
 C         2.083933        -0.022823         1.332777
 O         3.471393         0.416942         1.346100
 C         4.131695         0.194927         0.076060
 C         3.979176        -1.267269        -0.426593
 C         2.563317        -0.682673        -0.964214
 C         3.204653         0.574173        -1.051684
 O         1.977178         1.279519        -0.611249
 H        -0.445206        -0.483475         0.797175
 H        -0.512681         0.614095        -0.386266
 H        -0.324323        -1.059126        -0.794155
 H         1.445085         0.597220         1.962203
 H         2.018356        -1.007070         1.675416
 H         5.104482         0.668788         0.155244
 H         4.634484        -1.558696        -1.276921
 H         4.073275        -2.206215         0.321425
 H         2.154528        -1.179468        -1.785533
 H         3.466896         1.015983        -2.086208
