19
Iteration:   748charge 0 multiplicity 1
 C         0.089521        -0.361614        -0.367256
 C         1.555142        -0.111056        -0.111420
 C         2.282369        -0.963938         0.879898
 O         3.518210        -0.452516         1.270533
 C         4.163271         0.169217         0.167257
 C         3.911338        -0.551257        -1.166869
 C         2.516989         0.159837        -1.345534
 C         3.055699         1.228685        -0.338967
 O         1.845502         1.236579         0.476477
 H        -0.159801        -0.655692        -1.439344
 H        -0.415951        -1.015524         0.307412
 H        -0.252792         0.658309        -0.294110
 H         1.663844        -1.148378         1.802042
 H         2.336295        -2.023358         0.396001
 H         5.115026         0.569625         0.386671
 H         4.548670         0.004349        -1.919698
 H         4.019878        -1.670973        -1.130982
 H         2.041296         0.343286        -2.340183
 H         3.355383         2.237291        -0.640381
