19
Iteration:   509
 C         0.188460        -0.365852        -0.414497
 C         1.591845        -0.043521        -0.085250
 C         2.307885        -1.097780         0.834624
 O         3.550030        -0.577297         1.239787
 C         4.021964         0.143235         0.106213
 C         3.829782        -0.447145        -1.275376
 C         2.567682         0.328088        -1.291169
 C         2.994464         1.276266        -0.231766
 O         1.859699         1.232747         0.584564
 H        -0.160989         0.069898        -1.364203
 H         0.079553        -1.423205        -0.673595
 H        -0.450118        -0.172844         0.379341
 H         1.731999        -1.416136         1.733881
 H         2.462210        -2.101908         0.249321
 H         5.031919         0.376695         0.431568
 H         4.657704        -0.001518        -1.826031
 H         3.668061        -1.473222        -1.425053
 H         2.014941         0.489228        -2.310983
 H         3.347047         2.331210        -0.408758
