19
Iteration:   481charge 0 multiplicity 1
 C         0.016504        -0.382834        -0.324505
 C         1.528901        -0.092036        -0.126402
 C         2.202081        -1.096354         0.870051
 O         3.609555        -0.713085         1.122472
 C         4.136364         0.234701         0.148947
 C         3.990861        -0.356602        -1.269482
 C         2.622374         0.326763        -1.260086
 C         3.062878         1.304344        -0.244562
 O         1.785222         1.200927         0.514382
 H        -0.111652        -0.223058        -1.387029
 H        -0.468671        -1.387153         0.077667
 H        -0.641013         0.396668         0.235430
 H         1.707909        -1.026933         1.895962
 H         2.142489        -2.132260         0.571339
 H         5.075626         0.437841         0.660285
 H         4.707305         0.171700        -1.964258
 H         4.067153        -1.488488        -1.407634
 H         2.209502         0.531064        -2.240315
 H         3.241290         2.335163        -0.481236
