19
Iteration:  3737
 C         0.114976        -0.264345        -0.304280
 C         1.595895        -0.013898         0.013392
 C         2.208666        -0.664420         1.202106
 O         3.576951        -0.141032         1.392083
 C         4.082156         0.224229         0.092830
 C         3.921160        -0.962169        -0.935659
 C         2.513328        -0.294990        -1.320565
 C         2.990253         1.074650        -0.742385
 O         1.908549         1.358012         0.054994
 H        -0.411095        -1.081317         0.245524
 H        -0.491401         0.686781        -0.220620
 H         0.173169        -0.757671        -1.300900
 H         1.790152        -0.264769         2.135189
 H         2.196103        -1.748118         1.112694
 H         4.947094         0.712997         0.373468
 H         4.604793        -1.001473        -1.817224
 H         4.020663        -2.021825        -0.639868
 H         1.812627        -0.342880        -2.162294
 H         3.438897         1.855636        -1.273337
