19
Iteration:    88charge 0 multiplicity 1
 C         0.093211        -0.526052        -0.373673
 C         1.574426        -0.066495        -0.092419
 C         2.210502        -1.024451         0.845470
 O         3.628708        -0.821655         0.977811
 C         4.148150         0.225883         0.182900
 C         3.922059        -0.185347        -1.315738
 C         2.474843         0.345101        -1.243080
 C         3.098166         1.213401        -0.064397
 O         1.782453         1.270008         0.577524
 H        -0.382903        -0.714569         0.582119
 H        -0.427319         0.268153        -1.083474
 H        -0.080705        -1.398452        -1.052550
 H         1.728740        -0.898431         1.820340
 H         1.972576        -2.158269         0.569854
 H         5.184718         0.406816         0.393591
 H         4.493126         0.373233        -2.024279
 H         4.140858        -1.189243        -1.423552
 H         2.002156         0.824267        -2.055591
 H         3.498681         2.202866        -0.201315
