19
Iteration:  3712
 C         0.047080        -0.325504        -0.252000
 C         1.567506        -0.078632        -0.052462
 C         2.272176        -0.785797         1.172911
 O         3.492790        -0.115082         1.376089
 C         4.184349         0.198889         0.081186
 C         3.875996        -0.905210        -0.866413
 C         2.500887        -0.232098        -1.229276
 C         3.099053         1.137914        -0.736513
 O         1.891326         1.441308        -0.071198
 H        -0.223517        -1.144154         0.419007
 H        -0.409598         0.589977         0.206883
 H        -0.370832        -0.634871        -1.158904
 H         1.782935        -0.514404         2.128082
 H         2.347823        -1.764567         0.968301
 H         5.214004         0.397897         0.515284
 H         4.525126        -1.097245        -1.855128
 H         3.823331        -1.952840        -0.508910
 H         1.862500        -0.436139        -2.088227
 H         3.701310         1.926042        -1.251336
