19
Iteration:  2709
 C         0.077023        -0.306122        -0.346653
 C         1.525115        -0.024212         0.009542
 C         2.195212        -0.857942         1.170241
 O         3.613027        -0.533142         1.165537
 C         4.129271         0.315855         0.129032
 C         3.990484        -0.728350        -1.126567
 C         2.624252        -0.021533        -1.234457
 C         3.040599         1.162165        -0.471150
 O         1.769007         1.343718         0.178683
 H        -0.164630        -0.075686        -1.360978
 H        -0.218934        -1.327869        -0.095123
 H        -0.618203         0.339818         0.276613
 H         1.871740        -0.479648         2.193042
 H         1.830689        -1.948263         0.971225
 H         5.133742         0.807926         0.442801
 H         4.578116        -0.376416        -1.983896
 H         4.082545        -1.829136        -0.825882
 H         1.987169        -0.010169        -2.117184
 H         3.387912         2.135158        -0.899443
