19
Iteration:  2777charge 0 multiplicity 1
 C         0.059045        -0.363897        -0.371244
 C         1.528880        -0.103694        -0.056919
 C         2.276725        -0.915157         1.015100
 O         3.581436        -0.291742         1.339093
 C         4.132148         0.189921         0.109818
 C         3.824297        -0.859303        -1.004261
 C         2.560706         0.032521        -1.295079
 C         3.048344         1.256123        -0.569225
 O         1.884475         1.433766         0.281601
 H        -0.570947         0.446260        -0.659033
 H        -0.050442        -1.117967        -1.080890
 H        -0.377485        -0.892824         0.506943
 H         1.683223        -0.984540         1.969191
 H         2.613054        -1.978338         0.758015
 H         5.175150         0.515113         0.325331
 H         4.519238        -0.639101        -1.829261
 H         3.714150        -1.930923        -0.806366
 H         2.131914         0.011108        -2.344095
 H         3.509902         2.160443        -1.030989
