19
Iteration:  1904
 C         0.155081        -0.375090        -0.364300
 C         1.652232        -0.087319        -0.069489
 C         2.241280        -0.848312         1.055850
 O         3.515653        -0.236058         1.335886
 C         4.079886         0.223234         0.187309
 C         3.775888        -0.777103        -1.020541
 C         2.531200        -0.027165        -1.376643
 C         3.057979         1.164833        -0.545489
 O         1.915576         1.332564         0.236418
 H        -0.402385        -0.535701         0.564242
 H        -0.511774         0.447405        -0.776173
 H        -0.011423        -1.295824        -0.983628
 H         1.577499        -0.759178         2.007473
 H         2.361893        -1.888553         0.870542
 H         5.081137         0.388780         0.345298
 H         4.585967        -0.510205        -1.766972
 H         3.734995        -1.907421        -0.820649
 H         2.060550        -0.065978        -2.310122
 H         3.666313         2.002733        -1.011891
