19
Iteration:   676
 C         0.101695        -0.410928        -0.426510
 C         1.568742        -0.101532        -0.067125
 C         2.208776        -1.001035         0.982359
 O         3.584904        -0.583529         1.213703
 C         4.106380         0.192603         0.152551
 C         3.909060        -0.498844        -1.244312
 C         2.531875         0.211143        -1.313506
 C         3.035517         1.299700        -0.313187
 O         1.842473         1.289080         0.453673
 H        -0.228756        -1.400030        -0.263438
 H        -0.596543         0.217780         0.210044
 H         0.007489        -0.165201        -1.445314
 H         1.586900        -0.993871         1.926167
 H         2.304082        -2.089103         0.770869
 H         5.184261         0.371242         0.382873
 H         4.638558        -0.069229        -1.936148
 H         3.901299        -1.535263        -1.141955
 H         2.131896         0.532158        -2.340304
 H         3.650081         2.232099        -0.404756
