19
Iteration:  1871
 C         0.043708        -0.316135        -0.424560
 C         1.582347        -0.076570        -0.002861
 C         2.232899        -0.872270         1.119124
 O         3.558189        -0.259560         1.312321
 C         4.144049         0.257858         0.121580
 C         3.866980        -0.791487        -1.053038
 C         2.556972        -0.077117        -1.303940
 C         3.027425         1.154249        -0.540664
 O         1.859601         1.339219         0.241567
 H        -0.469212        -0.541981         0.508255
 H        -0.184162         0.622806        -1.039326
 H         0.041737        -1.159754        -1.124177
 H         1.803982        -0.817659         2.209208
 H         2.344964        -1.906560         0.761283
 H         5.106553         0.546706         0.418627
 H         4.651930        -0.754672        -1.905600
 H         3.843906        -1.897344        -0.715529
 H         2.096480        -0.024635        -2.239800
 H         3.586620         2.011617        -1.045752
