19
Iteration:  2663charge 0 multiplicity 1
 C         0.093245        -0.370477        -0.291967
 C         1.552430        -0.092538        -0.086234
 C         2.207634        -0.882224         1.141664
 O         3.526772        -0.334958         1.304498
 C         4.051175         0.160861         0.132551
 C         3.905466        -0.691203        -1.193407
 C         2.564610         0.052692        -1.366289
 C         3.147502         1.228827        -0.499268
 O         1.867033         1.283826         0.314911
 H        -0.006084        -0.594162        -1.407354
 H        -0.196692        -1.277571         0.352843
 H        -0.507746         0.509704        -0.116108
 H         1.488237        -0.645029         1.950833
 H         2.268690        -2.010970         0.853225
 H         5.095422         0.468970         0.309718
 H         4.597740        -0.283364        -1.987460
 H         3.937435        -1.853285        -0.997207
 H         2.131636         0.182137        -2.339590
 H         3.588359         2.139956        -0.895261
