19
Iteration:   980
 C         0.130506        -0.379555        -0.233730
 C         1.644477        -0.091630        -0.073520
 C         2.185065        -1.021411         0.955847
 O         3.517089        -0.584669         1.200647
 C         4.070690         0.202462         0.186545
 C         3.986295        -0.523675        -1.243224
 C         2.525673         0.216919        -1.291690
 C         3.077224         1.288485        -0.351208
 O         1.826425         1.286774         0.327315
 H        -0.197276        -0.158374        -1.213918
 H        -0.065455        -1.489063        -0.249802
 H        -0.536777         0.125222         0.420703
 H         1.555430        -0.868721         1.885074
 H         2.098600        -2.035017         0.759806
 H         5.074152         0.493778         0.592191
 H         4.590608        -0.079847        -1.951385
 H         4.094212        -1.539900        -1.146029
 H         2.174882         0.375506        -2.442471
 H         3.240714         2.325847        -0.813160
