19
Iteration:   597charge 0 multiplicity 1
 C         0.129680        -0.365168        -0.274155
 C         1.597508        -0.064480        -0.116897
 C         2.227637        -1.032459         0.897703
 O         3.534353        -0.702190         1.149615
 C         4.101002         0.209205         0.195653
 C         4.039681        -0.435348        -1.190553
 C         2.521152         0.201889        -1.308946
 C         2.989824         1.306634        -0.265146
 O         1.782625         1.272482         0.398887
 H        -0.313249        -0.166074         0.712782
 H        -0.250480         0.378587        -1.076435
 H        -0.111668        -1.327888        -0.629083
 H         1.593689        -0.862858         1.734565
 H         2.116254        -2.114458         0.553436
 H         5.069055         0.542954         0.495914
 H         4.758026         0.148282        -1.843860
 H         4.223247        -1.429928        -1.480363
 H         2.012161         0.285615        -2.259330
 H         3.513508         2.254161        -0.557288
