19
Iteration:  4656charge 0 multiplicity 1
 C         0.128689        -0.357038        -0.211533
 C         1.628013        -0.031839        -0.020994
 C         2.175446        -0.069681         1.366549
 O         3.534360         0.456814         1.411080
 C         4.165411         0.254670         0.113648
 C         3.745113        -1.391611        -0.417266
 C         2.565807        -0.696797        -1.069007
 C         3.160256         0.736727        -1.095167
 O         1.897215         1.338782        -0.586579
 H        -0.503601         0.637995         0.014375
 H        -0.272209        -0.735934        -1.231149
 H        -0.267361        -1.246831         0.404600
 H         1.509036         0.485374         2.094824
 H         2.015350        -1.173304         1.789805
 H         5.246915         0.642899         0.150056
 H         4.343884        -1.968991        -1.144956
 H         3.436955        -2.038588         0.350340
 H         2.102453        -1.219060        -2.040506
 H         3.629898         1.269832        -1.926430
