19
Iteration:  3270charge 0 multiplicity 1
 C         0.160176        -0.274231        -0.377165
 C         1.570077        -0.045192        -0.029981
 C         2.222356        -0.820490         1.206190
 O         3.620585        -0.222438         1.340390
 C         4.134402         0.217032         0.119794
 C         3.833773        -0.860111        -1.032423
 C         2.550090        -0.139721        -1.276818
 C         3.038298         1.147335        -0.660084
 O         1.818620         1.331749         0.200653
 H        -0.161066        -1.323196        -0.531388
 H        -0.568901        -0.006166         0.487331
 H        -0.094520         0.392887        -1.259374
 H         1.728557        -0.644666         2.206851
 H         2.310794        -1.842615         0.761466
 H         5.212136         0.408248         0.264188
 H         4.331380        -0.636612        -2.052568
 H         3.817778        -1.925809        -0.797955
 H         1.932772        -0.266413        -2.245948
 H         3.321023         2.094560        -1.205118
