19
Iteration:   158
 C         0.028350        -0.319671        -0.427654
 C         1.526934        -0.129970        -0.098456
 C         2.359908        -1.163703         0.684339
 O         3.578080        -0.572866         1.166814
 C         4.178847         0.188234         0.102357
 C         3.923363        -0.385434        -1.255972
 C         2.487221         0.397681        -1.286241
 C         2.999825         1.292234        -0.143445
 O         1.811569         1.111444         0.715511
 H        -0.563884        -0.485010         0.533322
 H        -0.370334         0.573948        -0.798752
 H        -0.192491        -1.129018        -1.249407
 H         1.920888        -1.671053         1.639645
 H         2.659488        -2.031845         0.031496
 H         5.255058         0.440098         0.381985
 H         4.663947         0.072329        -1.945989
 H         3.917074        -1.538197        -1.261664
 H         2.241176         0.903985        -2.309246
 H         3.141955         2.372361        -0.347620
