19
Iteration:  1207
 C         0.070679        -0.468646        -0.244933
 C         1.566606        -0.041789        -0.150724
 C         2.180871        -0.874076         1.014353
 O         3.620741        -0.668694         1.208188
 C         4.076474         0.212414         0.165274
 C         3.993554        -0.559085        -1.144379
 C         2.595961         0.134195        -1.329651
 C         3.069965         1.230402        -0.351071
 O         1.786723         1.415964         0.298540
 H        -0.548911         0.266523         0.191805
 H        -0.449297        -0.585312        -1.228044
 H        -0.110152        -1.414595         0.203351
 H         1.706832        -0.625891         1.868078
 H         2.059025        -1.945134         0.674855
 H         4.975782         0.739779         0.573574
 H         4.607512        -0.239522        -2.026848
 H         4.104762        -1.740386        -1.101777
 H         1.951758         0.545988        -2.357860
 H         3.500987         2.124331        -0.736464
