19
Iteration:  1018charge 0 multiplicity 1
 C         0.083012        -0.212347        -0.442327
 C         1.514046        -0.103775        -0.031606
 C         2.414663        -1.078311         0.873049
 O         3.557482        -0.411302         1.293992
 C         4.070640         0.247617         0.094896
 C         3.885850        -0.626197        -1.145188
 C         2.522829         0.097988        -1.303978
 C         3.033702         1.319096        -0.348554
 O         1.810776         1.167939         0.499906
 H        -0.003144         0.146458        -1.508987
 H        -0.189941        -1.207915        -0.297362
 H        -0.540465         0.383163         0.265043
 H         1.907342        -1.296492         1.761161
 H         2.704157        -2.068649         0.307845
 H         5.068296         0.572097         0.315808
 H         4.558959        -0.394906        -2.106815
 H         3.963408        -1.801247        -1.150962
 H         1.973562         0.277181        -2.198547
 H         3.328431         2.240445        -0.755956
