19
Iteration:  1699
 C         0.136170        -0.406591        -0.209968
 C         1.634555         0.011148        -0.080209
 C         2.089719        -0.768720         1.104556
 O         3.576120        -0.541508         1.339125
 C         4.082453         0.205349         0.200940
 C         3.940702        -0.647150        -1.078132
 C         2.609973        -0.069405        -1.311553
 C         3.058203         1.175141        -0.577416
 O         1.796954         1.422285         0.061523
 H        -0.234846        -0.668330         0.733308
 H        -0.509835         0.443888        -0.619436
 H         0.075005        -1.327084        -0.824163
 H         1.848725        -0.516124         2.153250
 H         1.867963        -1.791081         0.893703
 H         5.091023         0.593529         0.363222
 H         4.646199        -0.387126        -1.770258
 H         4.061305        -1.727769        -0.860267
 H         2.030530        -0.057446        -2.349827
 H         3.495963         2.036638        -1.039692
