19
Iteration:  2958charge 0 multiplicity 1
 C         0.106700        -0.342430        -0.226079
 C         1.574821        -0.021922        -0.071630
 C         2.229019        -0.807733         1.157407
 O         3.562334        -0.607296         1.249878
 C         4.087225         0.205535         0.099208
 C         3.966002        -0.673792        -1.075163
 C         2.615039        -0.075598        -1.316261
 C         3.034676         1.246745        -0.522310
 O         1.738206         1.454630         0.159513
 H        -0.338444         0.210793        -1.012671
 H         0.129265        -1.423077        -0.463774
 H        -0.440772        -0.278965         0.760327
 H         1.758325        -0.268881         2.005552
 H         1.926574        -1.939653         1.100390
 H         5.145675         0.560771         0.355036
 H         4.643120        -0.426489        -1.910621
 H         4.186099        -1.778112        -0.984686
 H         2.166583         0.043591        -2.273266
 H         3.611649         2.060181        -0.998928
