19
Iteration:  2803
 C         0.173011        -0.304588        -0.394248
 C         1.571932        -0.153738         0.020643
 C         2.163333        -0.764130         1.166139
 O         3.583505        -0.452638         1.298101
 C         4.143541         0.252711         0.085345
 C         3.942949        -0.722076        -1.143559
 C         2.534069        -0.049335        -1.319337
 C         3.019316         1.177652        -0.553294
 O         1.815969         1.347684         0.272181
 H        -0.314873         0.656750        -0.673772
 H        -0.045505        -1.096834        -1.167421
 H        -0.430464        -0.634935         0.413821
 H         1.619431        -0.320646         1.999754
 H         2.167886        -1.899490         1.249900
 H         5.083820         0.666797         0.384809
 H         4.537593        -0.414147        -1.996422
 H         3.901527        -1.714648        -0.769402
 H         1.992740        -0.176915        -2.255135
 H         3.483985         2.060672        -0.976250
