19
Iteration:  3356
 C         0.107067        -0.391866        -0.285590
 C         1.622298        -0.054891        -0.040889
 C         2.278778        -0.711674         1.138733
 O         3.553406        -0.226049         1.441748
 C         4.086076         0.184843         0.133596
 C         3.803501        -0.869201        -0.992452
 C         2.547001        -0.083967        -1.359254
 C         3.044631         1.150304        -0.655931
 O         1.891583         1.367451         0.071783
 H        -0.046337        -0.187181        -1.316984
 H        -0.132984        -1.428943         0.020066
 H        -0.498578         0.281781         0.240132
 H         1.726390        -0.419518         2.044532
 H         2.329735        -1.830510         0.926053
 H         5.098827         0.332207         0.346055
 H         4.484767        -0.987227        -1.829362
 H         3.707915        -1.955844        -0.838207
 H         1.879151        -0.109418        -2.237055
 H         3.425436         2.058240        -1.156400
