19
Iteration:   869charge 0 multiplicity 1
 C         0.077678        -0.279777        -0.336360
 C         1.571278        -0.113959        -0.072495
 C         2.310100        -1.100040         0.909247
 O         3.568271        -0.466056         1.266547
 C         4.130789         0.218635         0.132896
 C         3.937797        -0.639826        -1.146216
 C         2.580907         0.163621        -1.287586
 C         3.004180         1.269074        -0.393950
 O         1.770341         1.306542         0.387861
 H        -0.231669         0.602008        -0.913526
 H        -0.024871        -1.159306        -0.909101
 H        -0.510215        -0.315794         0.545657
 H         1.601734        -1.098616         1.813746
 H         2.368206        -2.089439         0.405900
 H         5.058674         0.573582         0.571098
 H         4.665782        -0.312497        -1.865207
 H         3.943300        -1.697642        -1.006554
 H         2.030296         0.213650        -2.415779
 H         3.291502         2.308727        -0.682607
