19
Iteration:  3012
 C         0.160283        -0.355128        -0.352683
 C         1.570150        -0.048397        -0.039755
 C         2.238360        -0.871240         1.019632
 O         3.517083        -0.213676         1.319663
 C         4.125097         0.192176         0.101675
 C         3.806236        -0.865868        -1.059052
 C         2.544717        -0.038546        -1.333706
 C         3.019010         1.244239        -0.565808
 O         1.934294         1.313077         0.339786
 H        -0.371498         0.550394        -0.424334
 H         0.112152        -0.869264        -1.319963
 H        -0.201007        -1.077969         0.429455
 H         1.673619        -0.953979         1.938433
 H         2.259930        -1.824839         0.570834
 H         5.234759         0.464299         0.282612
 H         4.586812        -0.667208        -1.798856
 H         3.522698        -1.893944        -0.693031
 H         1.870886         0.109157        -2.171666
 H         3.488415         2.182224        -0.930012
