19
Iteration:   485charge 0 multiplicity 1
 C         0.046779        -0.402621        -0.322859
 C         1.533708        -0.097914        -0.129760
 C         2.197427        -1.084321         0.855454
 O         3.608096        -0.678542         1.150928
 C         4.159970         0.234676         0.161333
 C         3.970661        -0.393785        -1.299124
 C         2.567852         0.332870        -1.268803
 C         3.085923         1.312250        -0.215523
 O         1.779362         1.196766         0.521960
 H        -0.093629        -0.206429        -1.450767
 H        -0.436957        -1.289478        -0.137288
 H        -0.559184         0.374793         0.286297
 H         1.706064        -1.045937         1.757305
 H         2.092778        -2.252571         0.535134
 H         5.120506         0.396500         0.720827
 H         4.540325         0.198200        -2.025104
 H         4.126939        -1.527890        -1.383018
 H         2.162389         0.566995        -2.223212
 H         3.358822         2.356932        -0.534143
