19
Iteration:  4697
 C        -0.043142        -0.292074        -0.118515
 C         1.513965         0.007996        -0.029283
 C         2.057511        -0.029206         1.380193
 O         3.456505         0.440501         1.341430
 C         4.151748         0.191346         0.081298
 C         3.982735        -1.352302        -0.474682
 C         2.641729        -0.777089        -1.006561
 C         3.230344         0.666529        -1.132043
 O         1.968623         1.328957        -0.588553
 H        -0.413389        -0.286676         0.938068
 H        -0.456289         0.484897        -0.744652
 H        -0.259230        -1.250760        -0.676244
 H         1.581326         0.600276         2.079281
 H         2.066902        -1.027819         1.855149
 H         5.081236         0.665533         0.402947
 H         4.658798        -1.547923        -1.300144
 H         3.841506        -2.105074         0.368496
 H         2.028656        -1.385283        -1.692187
 H         3.617421         1.269422        -2.040101
