19
Iteration:  4464
 C         0.102237        -0.329195        -0.200792
 C         1.550804        -0.019125        -0.005054
 C         2.099396        -0.150242         1.402271
 O         3.522468         0.196313         1.379255
 C         4.102058         0.142088         0.094287
 C         3.923237        -1.144585        -0.594717
 C         2.596287        -0.634918        -1.149846
 C         3.112916         0.839306        -1.057983
 O         1.945106         1.346922        -0.412056
 H        -0.497229         0.451412         0.291354
 H        -0.229948        -0.382942        -1.278347
 H        -0.158076        -1.222832         0.382543
 H         1.524925         0.363236         2.121333
 H         1.850798        -1.196849         1.549690
 H         5.131433         0.540608         0.312856
 H         4.688380        -1.281559        -1.344681
 H         3.759032        -2.006312         0.060599
 H         2.024290        -1.120540        -1.881551
 H         3.551016         1.429914        -1.896111
