19
Iteration:  3841charge 0 multiplicity 1
 C         0.030579        -0.311372        -0.272192
 C         1.516122        -0.125056        -0.080420
 C         2.215759        -0.643194         1.187293
 O         3.565937        -0.028322         1.355222
 C         4.101207         0.169055         0.093777
 C         3.895604        -1.009832        -0.973325
 C         2.580641        -0.256144        -1.326716
 C         3.071467         1.081681        -0.670213
 O         1.939953         1.330471         0.100374
 H        -0.385321        -1.027113         0.449493
 H        -0.494035         0.650256        -0.040138
 H        -0.143421        -0.393796        -1.316490
 H         1.591612        -0.265020         2.003241
 H         2.266894        -1.651627         1.447824
 H         5.084030         0.759301         0.264035
 H         4.604336        -0.764884        -1.651891
 H         3.873733        -2.056679        -0.718525
 H         2.067243        -0.243776        -2.299972
 H         3.471676         1.989552        -1.257333
