19
Iteration:  1954
 C         0.134224        -0.375355        -0.232919
 C         1.612428        -0.040252        -0.097574
 C         2.144245        -0.724285         1.164832
 O         3.566674        -0.588585         1.261214
 C         4.059118         0.237256         0.157518
 C         4.028105        -0.670159        -1.062714
 C         2.523214        -0.038874        -1.284657
 C         3.054959         1.205628        -0.540966
 O         1.806521         1.362224         0.097280
 H        -0.627707         0.085056         0.491446
 H        -0.272670        -0.042769        -1.184527
 H        -0.038683        -1.442539        -0.183565
 H         1.588990        -0.254628         1.994963
 H         1.821033        -1.864291         1.212665
 H         5.052258         0.763569         0.528875
 H         4.574231        -0.355592        -1.961115
 H         4.230663        -1.700332        -0.823384
 H         2.259971         0.051425        -2.389867
 H         3.728180         1.937496        -0.995497
