19
Iteration:   260
 C         0.300889        -0.401329        -0.515126
 C         1.653593        -0.068291        -0.074000
 C         2.262354        -1.148626         0.787479
 O         3.560292        -0.710289         1.177476
 C         4.018913         0.189797         0.143658
 C         3.750991        -0.359400        -1.317569
 C         2.506779         0.422792        -1.297386
 C         2.994555         1.353832        -0.189631
 O         1.861028         1.173468         0.755332
 H        -0.484740        -0.191684         0.298038
 H        -0.190213         0.210910        -1.433828
 H         0.243209        -1.420155        -0.703847
 H         1.746303        -1.407735         1.768526
 H         2.409801        -2.069654         0.130258
 H         5.000664         0.499491         0.342434
 H         4.473768         0.226188        -2.089330
 H         3.788003        -1.431335        -1.556015
 H         1.947732         0.612461        -2.212718
 H         3.430728         2.372280        -0.224185
