19
Iteration:  3294
 C         0.094691        -0.278522        -0.234737
 C         1.561487        -0.076428        -0.054120
 C         2.265016        -0.822749         1.191662
 O         3.585182        -0.379359         1.350469
 C         4.067497         0.268338         0.062748
 C         3.948286        -0.855360        -0.992408
 C         2.550881        -0.147420        -1.274652
 C         3.009910         1.134696        -0.619421
 O         1.855388         1.458100         0.052225
 H        -0.139675        -1.126517        -0.917682
 H        -0.532744        -0.630402         0.634184
 H        -0.400634         0.730332        -0.680954
 H         1.663230        -0.487127         2.076714
 H         2.091319        -1.879226         0.927291
 H         5.149381         0.670070         0.244988
 H         4.628030        -0.549956        -1.928841
 H         4.087571        -1.819741        -0.544062
 H         2.027745        -0.201123        -2.321706
 H         3.369969         2.053752        -1.210229
