19
Iteration:  1162charge 0 multiplicity 1
 C         0.077714        -0.288424        -0.311370
 C         1.515240        -0.120678        -0.142125
 C         2.295071        -1.032283         0.901859
 O         3.509455        -0.407109         1.312764
 C         4.087586         0.248671         0.183889
 C         3.953435        -0.597193        -1.224723
 C         2.530002         0.068306        -1.288022
 C         3.034630         1.213489        -0.423010
 O         1.884530         1.250556         0.421558
 H        -0.285213         0.728057        -0.062241
 H        -0.168525        -0.396566        -1.323646
 H        -0.345795        -1.083016         0.300676
 H         1.797754        -1.151009         1.777173
 H         2.508625        -2.039321         0.418362
 H         5.034332         0.724726         0.459880
 H         4.737296        -0.144647        -1.915150
 H         4.244968        -1.712709        -1.162920
 H         1.782233         0.202247        -2.286825
 H         3.426719         2.157823        -0.630871
