19
Iteration:  1500
 C         0.168128        -0.337836        -0.404324
 C         1.650372        -0.153319        -0.038377
 C         2.160102        -0.886001         1.066208
 O         3.542000        -0.257782         1.359438
 C         4.090077         0.170281         0.078133
 C         3.854842        -0.763959        -1.146961
 C         2.570404         0.034797        -1.337344
 C         3.071481         1.213322        -0.500539
 O         1.847616         1.306075         0.355186
 H        -0.195936         0.132789        -1.424851
 H        -0.046666        -1.433542        -0.470720
 H        -0.524587         0.084035         0.338041
 H         1.506169        -0.716968         2.055022
 H         2.396110        -1.928527         0.948104
 H         5.072014         0.533665         0.404724
 H         4.527590        -0.560916        -1.963658
 H         3.764988        -1.824317        -0.891700
 H         2.071390         0.100186        -2.290765
 H         3.375936         2.204822        -1.058952
