19
Iteration:  2467charge 0 multiplicity 1
 C         0.026214        -0.299597        -0.337280
 C         1.542305        -0.126166        -0.060412
 C         2.199492        -0.782305         1.148316
 O         3.644092        -0.493496         1.327319
 C         4.177146         0.241514         0.120333
 C         3.987980        -0.653760        -1.091486
 C         2.509060        -0.046306        -1.310310
 C         3.021186         1.148697        -0.546963
 O         1.802501         1.359805         0.221159
 H        -0.437169         0.674003         0.019584
 H         0.101435        -0.224639        -1.455471
 H        -0.379662        -1.224937        -0.034884
 H         1.666585        -0.582759         2.119136
 H         2.128772        -1.850928         0.976063
 H         5.204804         0.602963         0.400794
 H         4.676813        -0.415569        -1.875906
 H         3.896741        -1.786110        -1.046847
 H         1.971711        -0.167780        -2.248085
 H         3.428290         2.015355        -1.019441
