19
Iteration:   490charge 0 multiplicity 1
 C         0.091181        -0.385067        -0.353972
 C         1.560764        -0.119324        -0.117742
 C         2.212596        -1.089987         0.812966
 O         3.586726        -0.636902         1.182336
 C         4.185910         0.210518         0.189370
 C         3.938610        -0.432097        -1.319003
 C         2.503340         0.311926        -1.275306
 C         3.090358         1.327994        -0.186645
 O         1.782446         1.202940         0.534530
 H        -0.164715        -0.163557        -1.356790
 H        -0.334838        -1.481459        -0.319806
 H        -0.381018         0.313933         0.276965
 H         1.575527        -1.020383         1.817193
 H         2.144649        -2.070978         0.493920
 H         5.164426         0.462583         0.592761
 H         4.383392         0.163915        -2.131601
 H         4.177327        -1.463262        -1.366996
 H         1.997566         0.696606        -2.311903
 H         3.502424         2.294559        -0.475805
