19
Iteration:  4133charge 0 multiplicity 1
 C         0.120135        -0.285061        -0.144118
 C         1.619363        -0.062014        -0.028907
 C         2.156121        -0.515650         1.319822
 O         3.491296        -0.069157         1.380935
 C         4.010442         0.228700         0.093155
 C         3.959378        -1.055227        -0.806841
 C         2.547991        -0.419280        -1.225204
 C         3.122129         1.033699        -0.857861
 O         1.899190         1.418569        -0.288169
 H        -0.120938        -1.376474         0.135894
 H        -0.399031         0.395104         0.550408
 H        -0.300881         0.009135        -1.220587
 H         1.817915        -0.114256         2.269627
 H         2.236633        -1.671211         1.489189
 H         4.978740         0.723228         0.238138
 H         4.594756        -1.123727        -1.749625
 H         3.887446        -2.020729        -0.219110
 H         1.959380        -0.622419        -2.106967
 H         3.634825         1.808682        -1.416614
