19
Iteration:  1600
 C         0.068006        -0.352481        -0.235733
 C         1.549446        -0.098738        -0.116757
 C         2.146806        -0.820344         1.064061
 O         3.556073        -0.376215         1.297996
 C         4.093668         0.238066         0.123850
 C         3.996646        -0.723632        -1.065487
 C         2.613818        -0.081620        -1.294118
 C         3.067525         1.194246        -0.528736
 O         1.827295         1.355131         0.175253
 H        -0.435057         0.110768         0.580954
 H        -0.373694         0.265849        -1.055559
 H        -0.260872        -1.362177        -0.398637
 H         1.640114        -0.626293         2.103223
 H         2.191541        -1.879275         0.936034
 H         5.071075         0.494716         0.454023
 H         4.721044        -0.352894        -1.716008
 H         4.066223        -1.813109        -0.898461
 H         2.221744        -0.130813        -2.289337
 H         3.555492         2.053712        -0.983641
