19
Iteration:  1661charge 0 multiplicity 1
 C         0.128077        -0.413546        -0.380549
 C         1.557590        -0.059368        -0.033940
 C         2.158278        -0.760318         1.149976
 O         3.552794        -0.249444         1.324444
 C         4.148737         0.184609         0.090035
 C         3.852037        -0.784563        -1.086217
 C         2.561113        -0.060869        -1.307136
 C         3.122867         1.212395        -0.530150
 O         1.870064         1.297685         0.249108
 H        -0.310921        -1.051893         0.511812
 H        -0.457023         0.447521        -0.622833
 H        -0.014793        -1.046422        -1.291258
 H         1.424060        -0.529750         1.844345
 H         2.298763        -1.886796         0.970010
 H         5.203570         0.419064         0.377180
 H         4.741677        -0.836835        -1.883584
 H         3.543431        -1.831500        -0.938627
 H         2.095643         0.193357        -2.263929
 H         3.332340         2.226097        -1.025730
