19
Iteration:   584charge 0 multiplicity 1
 C         0.133547        -0.352040        -0.311947
 C         1.588412        -0.138535        -0.096775
 C         2.139697        -1.061909         0.990636
 O         3.570645        -0.715992         1.144005
 C         4.052266         0.205375         0.208415
 C         3.954600        -0.349743        -1.248658
 C         2.629131         0.233975        -1.328707
 C         3.079552         1.278020        -0.349921
 O         1.786935         1.267547         0.404396
 H        -0.413888         0.218103         0.543573
 H        -0.316768         0.106337        -1.194552
 H        -0.111450        -1.477591        -0.189015
 H         1.749567        -1.018698         1.925249
 H         2.091057        -2.104616         0.681463
 H         4.985336         0.532074         0.670701
 H         4.541305         0.374356        -1.868333
 H         4.213841        -1.449165        -1.355765
 H         2.221157         0.561297        -2.172945
 H         3.354771         2.324854        -0.499300
