19
Iteration:  1489
 C         0.089640        -0.374110        -0.367713
 C         1.557082        -0.062858        -0.128558
 C         2.193772        -0.872030         1.139713
 O         3.570280        -0.339164         1.365196
 C         4.141610         0.218031         0.151729
 C         3.910272        -0.727167        -1.167245
 C         2.547414         0.004931        -1.303430
 C         3.021834         1.189176        -0.517492
 O         1.871876         1.293695         0.264191
 H        -0.092853        -0.035275        -1.485144
 H        -0.235486        -1.406863        -0.158361
 H        -0.328367         0.360159         0.311743
 H         1.493988        -0.818891         2.104088
 H         2.222358        -1.905041         0.805844
 H         5.144653         0.579968         0.439644
 H         4.608840        -0.462028        -1.955460
 H         3.936586        -1.821975        -1.134624
 H         2.079668         0.211784        -2.224773
 H         3.520326         2.201720        -0.779649
