19
Iteration:  4817
 C         0.100414        -0.270805        -0.135048
 C         1.592222        -0.003606        -0.074618
 C         2.099864         0.093212         1.370264
 O         3.568780         0.439546         1.396160
 C         4.078625         0.196457         0.107261
 C         3.836424        -1.374094        -0.264964
 C         2.572724        -0.830700        -1.025895
 C         3.147070         0.733000        -1.127547
 O         1.906315         1.223340        -0.743589
 H        -0.211063        -0.115561        -1.169408
 H        -0.178548        -1.235890         0.171025
 H        -0.291532         0.479544         0.519476
 H         1.493039         0.784484         1.939591
 H         2.027627        -0.874908         1.879597
 H         5.183797         0.350145         0.035866
 H         4.585111        -1.577215        -1.061148
 H         3.847764        -2.167514         0.635718
 H         2.173436        -1.368409        -1.887813
 H         3.605730         1.305177        -2.056157
