19
Iteration:  3807
 C         0.154907        -0.367424        -0.142909
 C         1.589097        -0.023087        -0.042747
 C         2.225870        -0.709789         1.095469
 O         3.515477        -0.199109         1.372255
 C         4.059806         0.187784         0.160200
 C         3.856299        -1.014946        -0.878197
 C         2.548249        -0.195809        -1.273800
 C         3.058838         1.107815        -0.752047
 O         1.888798         1.522119        -0.074895
 H        -0.215628        -1.166248         0.546297
 H        -0.406290         0.557940        -0.069883
 H         0.009817        -0.916370        -1.098394
 H         1.765200        -0.375133         2.006419
 H         2.345214        -1.746007         0.950608
 H         5.097169         0.651700         0.292876
 H         4.631386        -0.961077        -1.548900
 H         3.784538        -2.068889        -0.652977
 H         2.091133        -0.296773        -2.282050
 H         3.473794         2.039728        -1.227771
