19
Iteration:  1820
 C         0.066532        -0.421666        -0.210354
 C         1.595019        -0.042136        -0.057340
 C         2.122651        -0.773801         1.164530
 O         3.500414        -0.485491         1.260836
 C         4.061872         0.237536         0.145124
 C         4.022950        -0.757728        -1.125343
 C         2.626310         0.003763        -1.349254
 C         3.099132         1.221767        -0.494399
 O         1.826710         1.384652         0.103389
 H        -0.391988         0.050168         0.609192
 H        -0.215069        -0.085322        -1.200338
 H        -0.026111        -1.507051         0.046620
 H         1.573353        -0.320810         1.915110
 H         1.945698        -1.941921         1.197102
 H         5.069633         0.508691         0.582346
 H         4.711618        -0.411415        -1.837605
 H         4.369927        -1.799168        -1.034464
 H         2.052222         0.104007        -2.385985
 H         3.503395         2.091857        -0.928867
