19
Iteration:  4039
 C         0.016803        -0.394445        -0.200832
 C         1.543881         0.007999        -0.063333
 C         2.173190        -0.581678         1.290830
 O         3.565584        -0.001407         1.387303
 C         4.102981         0.148884         0.129798
 C         3.843752        -1.013319        -0.900238
 C         2.577539        -0.303469        -1.275137
 C         3.117561         1.045263        -0.810238
 O         1.951675         1.415906        -0.116430
 H        -0.554167         0.501211         0.139596
 H        -0.295731        -0.867867        -1.169502
 H        -0.227813        -1.191487         0.503091
 H         1.588128        -0.348390         2.195460
 H         2.314555        -1.715200         1.104711
 H         5.225070         0.453160         0.277424
 H         4.537256        -1.072212        -1.708696
 H         3.683852        -1.944317        -0.335813
 H         2.278018        -0.536608        -2.311094
 H         3.632178         1.885719        -1.416663
