19
Iteration:  3435
 C         0.104696        -0.352710        -0.122993
 C         1.555656        -0.083753        -0.092875
 C         2.110843        -0.633104         1.185952
 O         3.513457        -0.209386         1.383648
 C         4.102146         0.158459         0.117499
 C         3.984220        -0.919275        -1.000702
 C         2.598140        -0.151541        -1.365353
 C         3.128092         1.072400        -0.619150
 O         1.847437         1.391449        -0.047309
 H        -0.398378         0.464425         0.328707
 H        -0.243529        -0.184022        -1.113295
 H        -0.159321        -1.303600         0.377886
 H         1.703231        -0.322618         2.157904
 H         2.125325        -1.744732         1.026517
 H         5.092545         0.619751         0.343708
 H         4.628096        -0.641990        -1.847664
 H         3.958903        -1.970109        -0.742556
 H         2.001221        -0.243046        -2.309046
 H         3.475728         2.019822        -1.166892
