19
Iteration:  4733charge 0 multiplicity 1
 C         0.117960        -0.224470        -0.143136
 C         1.626038        -0.034993        -0.070267
 C         2.162201        -0.032332         1.425948
 O         3.509005         0.409638         1.405309
 C         4.042905         0.201778         0.115477
 C         3.862872        -1.272966        -0.366105
 C         2.581367        -0.820850        -1.066487
 C         3.148522         0.701342        -1.156527
 O         1.911629         1.301185        -0.687760
 H        -0.371633        -1.146076         0.419739
 H        -0.396825         0.658606         0.360913
 H        -0.279177        -0.379577        -1.175779
 H         1.493399         0.655048         1.968638
 H         2.100912        -1.119721         1.813773
 H         5.115381         0.550828         0.091932
 H         4.674054        -1.685953        -0.964823
 H         3.753290        -2.031743         0.365620
 H         2.116179        -1.704312        -1.648953
 H         3.529585         1.331103        -1.938400
