19
Iteration:   666charge 0 multiplicity 1
 C         0.134915        -0.371072        -0.441688
 C         1.589817        -0.087297        -0.061194
 C         2.282082        -1.022560         0.954596
 O         3.551687        -0.514358         1.266031
 C         4.030185         0.140397         0.134743
 C         3.887426        -0.560735        -1.284368
 C         2.574007         0.257430        -1.294425
 C         3.039125         1.285701        -0.315440
 O         1.857123         1.239305         0.497609
 H        -0.072039        -1.362547        -0.186448
 H        -0.596861         0.347002        -0.071421
 H         0.050309        -0.276908        -1.503241
 H         1.649387        -0.867133         1.945393
 H         2.244044        -2.081265         0.520819
 H         5.011974         0.606456         0.413839
 H         4.679416        -0.240321        -1.937190
 H         3.954720        -1.622741        -1.342900
 H         1.780156         0.514334        -2.169013
 H         3.273113         2.362583        -0.509834
