19
Iteration:   165charge 0 multiplicity 1
 C         0.040973        -0.303098        -0.353193
 C         1.528948        -0.160359        -0.101854
 C         2.359543        -1.207191         0.705902
 O         3.532685        -0.600251         1.157179
 C         4.133013         0.204798         0.101123
 C         3.996993        -0.363796        -1.259990
 C         2.512003         0.415262        -1.312547
 C         2.952615         1.279250        -0.173485
 O         1.848079         1.137920         0.700714
 H        -0.625578        -0.444259         0.424597
 H        -0.388263         0.609599        -0.815656
 H        -0.089207        -1.171613        -1.040329
 H         1.763699        -1.600924         1.504118
 H         2.611557        -1.968558        -0.074351
 H         5.118270         0.567249         0.376194
 H         4.664955         0.068549        -1.917628
 H         4.091003        -1.415101        -1.272850
 H         2.162184         0.748119        -2.274295
 H         3.271269         2.301844        -0.217939
