19
Iteration:  1784charge 0 multiplicity 1
 C         0.141702        -0.367625        -0.297573
 C         1.580766        -0.042542        -0.078190
 C         2.264968        -0.894282         1.054485
 O         3.532094        -0.317161         1.370534
 C         4.093126         0.224112         0.151878
 C         3.854212        -0.833992        -1.084592
 C         2.556534        -0.013301        -1.333590
 C         3.079039         1.225686        -0.543079
 O         1.840787         1.371726         0.219814
 H        -0.584925         0.364937         0.067558
 H        -0.081097        -0.405301        -1.414834
 H        -0.136344        -1.365448        -0.013069
 H         1.776133        -0.883837         1.967652
 H         2.186414        -1.980142         0.637042
 H         5.059913         0.550507         0.360606
 H         4.608294        -0.548922        -1.856900
 H         3.856391        -1.930455        -0.804657
 H         1.982505         0.237885        -2.204563
 H         3.486483         2.204934        -0.938628
