19
Iteration:  4138charge 0 multiplicity 1
 C         0.110008        -0.272013        -0.162323
 C         1.587446        -0.037413        -0.052082
 C         2.222793        -0.544413         1.325345
 O         3.510272        -0.064472         1.375023
 C         4.015700         0.240872         0.121501
 C         3.907762        -1.020974        -0.773797
 C         2.561252        -0.392320        -1.219021
 C         3.090239         0.989668        -0.859477
 O         1.897759         1.404005        -0.289696
 H        -0.025825        -1.323686        -0.065353
 H        -0.407078         0.207534         0.688726
 H        -0.307155         0.113572        -1.019276
 H         1.678812        -0.141769         2.220012
 H         2.200399        -1.614079         1.397470
 H         5.027493         0.755641         0.167286
 H         4.699274        -1.307718        -1.488922
 H         3.896471        -2.059467        -0.335213
 H         2.048576        -0.521677        -2.200520
 H         3.680305         1.600115        -1.634462
