19
Iteration:  4109
 C         0.057384        -0.307776        -0.188116
 C         1.568467        -0.038521        -0.071850
 C         2.123802        -0.401614         1.245453
 O         3.517989        -0.024873         1.396052
 C         4.176635         0.133947         0.128901
 C         3.952598        -0.994492        -0.855592
 C         2.580512        -0.406653        -1.215088
 C         3.062005         0.948235        -0.859622
 O         1.897256         1.358635        -0.110511
 H        -0.187876        -1.014922         0.646211
 H        -0.556663         0.643138        -0.119387
 H        -0.281285        -0.795258        -1.254105
 H         1.732535         0.198424         2.125460
 H         2.132892        -1.525891         1.557152
 H         5.161204         0.456575         0.236495
 H         4.625036        -0.717131        -1.742565
 H         3.914598        -2.060842        -0.594986
 H         2.152200        -0.536038        -2.257446
 H         3.371900         1.512841        -1.708856
