19
Iteration:    37
 C         0.102585        -0.253005        -0.340399
 C         1.586151        -0.147614        -0.133306
 C         2.410329        -1.242203         0.626294
 O         3.537126        -0.612232         1.122078
 C         4.040944         0.258002         0.190692
 C         3.898167        -0.335028        -1.252156
 C         2.486381         0.358624        -1.212526
 C         2.986614         1.269103        -0.182782
 O         1.850551         1.115459         0.659199
 H        -0.346770        -0.069739         0.602165
 H        -0.144123         0.310787        -1.084325
 H        -0.259899        -1.306358        -0.709934
 H         1.891984        -1.628516         1.548573
 H         2.574905        -2.074799         0.069579
 H         5.012830         0.663757         0.538256
 H         4.500539         0.252095        -1.941339
 H         4.079678        -1.477041        -1.551521
 H         2.036334         0.794809        -2.166761
 H         3.278585         2.264055        -0.467472
