19
Iteration:  3102
 C         0.087530        -0.433912        -0.168632
 C         1.577517         0.010639        -0.099709
 C         2.160049        -0.792504         1.038524
 O         3.544378        -0.420492         1.326504
 C         4.154224         0.214645         0.157179
 C         3.958326        -0.815525        -1.080756
 C         2.540313        -0.020952        -1.400875
 C         3.098402         1.190584        -0.580838
 O         1.813772         1.450645         0.221916
 H        -0.571761         0.459292         0.026373
 H        -0.228717        -0.691173        -1.163596
 H        -0.084526        -1.386875         0.393881
 H         1.704855        -0.503349         1.983780
 H         2.088682        -1.820497         0.788308
 H         5.226215         0.419667         0.473096
 H         4.600819        -0.752274        -1.976058
 H         3.805576        -1.933479        -0.750795
 H         2.204732         0.046460        -2.407139
 H         3.570077         2.139464        -0.849129
