19
Iteration:  1916
 C         0.097650        -0.419348        -0.289800
 C         1.523968        -0.060296        -0.124237
 C         2.212496        -0.815062         1.124506
 O         3.526250        -0.334417         1.409163
 C         4.108623         0.171029         0.136311
 C         3.891339        -0.751386        -1.089684
 C         2.549347        -0.015735        -1.343877
 C         3.144252         1.191848        -0.567409
 O         1.871048         1.371260         0.178698
 H        -0.350984        -0.511005         0.677891
 H        -0.247933         0.435753        -0.943623
 H         0.013967        -1.388318        -0.885396
 H         1.610058        -0.619637         2.037581
 H         2.231310        -1.889206         0.912324
 H         5.014640         0.596534         0.388754
 H         4.622329        -0.568658        -1.917208
 H         3.920552        -1.913083        -0.892308
 H         2.123228         0.138312        -2.327166
 H         3.337535         2.209083        -0.930793
