19
Iteration:  2706charge 0 multiplicity 1
 C         0.092950        -0.298413        -0.352343
 C         1.545158        -0.009094         0.009740
 C         2.197716        -0.873106         1.171804
 O         3.618997        -0.536626         1.154201
 C         4.124239         0.302083         0.120955
 C         3.973275        -0.714201        -1.109720
 C         2.614933        -0.054074        -1.223923
 C         3.058563         1.179620        -0.477008
 O         1.747570         1.357437         0.186922
 H        -0.133251        -0.113885        -1.471303
 H        -0.356085        -1.348346        -0.070763
 H        -0.602653         0.323446         0.227491
 H         1.933228        -0.527662         2.170917
 H         1.873755        -1.911618         1.086813
 H         5.041754         0.770197         0.427006
 H         4.589763        -0.300594        -1.963190
 H         4.069617        -1.841365        -0.838000
 H         2.050161        -0.015360        -2.126020
 H         3.352935         2.122398        -0.906040
