19
Iteration:   335
 C         0.096369        -0.363984        -0.276977
 C         1.550592        -0.146419        -0.101135
 C         2.151915        -1.217643         0.848368
 O         3.558890        -0.771895         1.042188
 C         4.089308         0.209299         0.188480
 C         4.019362        -0.246341        -1.259902
 C         2.636777         0.313145        -1.297069
 C         2.987288         1.355187        -0.180022
 O         1.827929         1.271172         0.503064
 H        -0.260670        -1.275296         0.307749
 H        -0.444094         0.629633         0.030235
 H        -0.304322        -0.615828        -1.196237
 H         1.712227        -1.318133         1.943555
 H         2.259959        -2.230186         0.403868
 H         5.051109         0.507812         0.637576
 H         4.684963         0.409639        -1.876711
 H         4.244363        -1.233664        -1.612749
 H         2.112663         0.593961        -2.297437
 H         3.337920         2.379037        -0.448261
