19
Iteration:   269
 C         0.216872        -0.339053        -0.494993
 C         1.589540        -0.081051        -0.024749
 C         2.279649        -1.223762         0.774161
 O         3.569025        -0.632696         1.207314
 C         4.073642         0.186505         0.143301
 C         3.814548        -0.340601        -1.362323
 C         2.472292         0.425161        -1.272588
 C         2.978374         1.272104        -0.163090
 O         1.893142         1.192848         0.690105
 H        -0.556486        -0.552101         0.314412
 H         0.002590         0.239100        -1.441084
 H         0.328361        -1.368081        -0.846262
 H         1.648519        -1.679038         1.671434
 H         2.393925        -2.059215        -0.002971
 H         5.059073         0.580739         0.402330
 H         4.613748        -0.089477        -2.111410
 H         3.713095        -1.445085        -1.457248
 H         1.974614         0.945454        -2.190587
 H         3.292055         2.355347        -0.199868
