19
Iteration:  3255
 C         0.057856        -0.337129        -0.377448
 C         1.567501        -0.111577        -0.053395
 C         2.284184        -0.762015         1.108214
 O         3.536469        -0.179226         1.389835
 C         4.101438         0.168245         0.019860
 C         3.839164        -0.854226        -1.055986
 C         2.471084        -0.114473        -1.316215
 C         3.066474         1.169420        -0.575365
 O         1.973584         1.334822         0.258857
 H        -0.036446        -1.422566        -0.238409
 H        -0.527214         0.307555         0.235348
 H        -0.151043        -0.125129        -1.381211
 H         1.631221        -0.636678         1.969254
 H         2.355534        -1.862792         1.312749
 H         5.039852         0.616928         0.256233
 H         4.562589        -0.631384        -1.819603
 H         3.808868        -1.974677        -0.744360
 H         2.002053        -0.001549        -2.250096
 H         3.467415         2.036749        -1.039779
