19
Iteration:  1613charge 0 multiplicity 1
 C         0.047950        -0.294969        -0.322037
 C         1.580291        -0.035155        -0.012744
 C         2.277781        -0.882374         1.070571
 O         3.530856        -0.321734         1.332366
 C         4.146080         0.202409         0.167061
 C         3.929426        -0.760550        -1.039232
 C         2.555512        -0.096846        -1.317506
 C         3.074438         1.206144        -0.567557
 O         1.816384         1.327810         0.164442
 H        -0.441659        -0.372074         0.591244
 H        -0.264040         0.487250        -1.091461
 H         0.004727        -1.351226        -0.752965
 H         1.550321        -0.735714         2.020895
 H         2.232918        -1.901364         0.705177
 H         5.107004         0.733041         0.319208
 H         4.453547        -0.602712        -1.983506
 H         4.038168        -1.847003        -0.749722
 H         2.106055        -0.056218        -2.185943
 H         3.283628         2.176046        -0.889358
