19
Iteration:  2042charge 0 multiplicity 1
 C         0.144473        -0.380690        -0.251038
 C         1.594837        -0.061774        -0.099742
 C         2.182410        -0.842193         1.066815
 O         3.494128        -0.315259         1.292777
 C         4.108210         0.221682         0.179084
 C         3.908238        -0.783111        -1.042377
 C         2.600493        -0.035315        -1.323590
 C         3.085120         1.180898        -0.539733
 O         1.837798         1.375159         0.177107
 H        -0.245361        -0.125023         0.769431
 H        -0.372145         0.238190        -1.010870
 H         0.126795        -1.404616        -0.499293
 H         1.570934        -0.758455         1.844293
 H         2.133069        -1.899146         0.653597
 H         5.115790         0.616900         0.568050
 H         4.489142        -0.741170        -1.994581
 H         3.759505        -1.855541        -0.780281
 H         2.101915        -0.053466        -2.337582
 H         3.487514         2.124620        -0.931283
