19
Iteration:  3544charge 0 multiplicity 1
 C         0.102545        -0.370630        -0.129936
 C         1.561114        -0.024109        -0.012015
 C         2.147731        -0.650680         1.214627
 O         3.534265        -0.255722         1.341871
 C         4.037652         0.224687         0.138318
 C         3.972158        -0.934644        -0.909008
 C         2.655244        -0.284232        -1.264674
 C         3.074923         1.147476        -0.777546
 O         1.858187         1.487148        -0.121387
 H        -0.185296        -1.320324         0.292947
 H        -0.416255         0.477522         0.281172
 H        -0.313617        -0.273858        -1.177452
 H         1.740506        -0.437574         2.219868
 H         2.135360        -1.759152         0.923383
 H         5.062061         0.608605         0.253147
 H         4.710513        -1.130355        -1.771928
 H         3.759273        -1.977639        -0.449501
 H         2.048127        -0.493255        -2.171129
 H         3.528604         2.009116        -1.381663
