19
Iteration:  3995charge 0 multiplicity 1
 C         0.085492        -0.247139        -0.228982
 C         1.576616        -0.068646        -0.067922
 C         2.206505        -0.535999         1.347779
 O         3.539936        -0.203063         1.405728
 C         4.073702         0.248276         0.115267
 C         3.950912        -0.937890        -0.887847
 C         2.574475        -0.371710        -1.318317
 C         3.066999         1.037057        -0.846227
 O         1.893552         1.365522        -0.100120
 H        -0.426247         0.593158        -0.807924
 H        -0.245025        -1.301601        -0.564006
 H        -0.307370        -0.160120         0.796736
 H         1.695260        -0.147585         2.240275
 H         2.022786        -1.677889         1.240035
 H         5.052575         0.806714         0.411383
 H         4.610519        -0.835392        -1.746395
 H         3.970682        -1.994255        -0.520637
 H         1.874679        -0.592054        -2.118861
 H         3.368642         1.915208        -1.523043
