19
Iteration:  4541
 C         0.126357        -0.297528        -0.178554
 C         1.563184         0.013141        -0.048150
 C         2.170185        -0.171034         1.311844
 O         3.466544         0.359171         1.337822
 C         4.056710         0.197863         0.083737
 C         3.823961        -1.209449        -0.506598
 C         2.598017        -0.691182        -1.102821
 C         3.117327         0.743627        -0.979642
 O         2.009613         1.294441        -0.443186
 H         0.031861        -1.332844         0.012754
 H        -0.519770         0.208478         0.626669
 H        -0.204755         0.031272        -1.181232
 H         1.467333         0.317657         2.007712
 H         2.132466        -1.331638         1.547867
 H         5.036871         0.659972         0.206947
 H         4.540612        -1.577366        -1.258303
 H         3.731580        -2.101104         0.189697
 H         2.130309        -1.024883        -1.974253
 H         3.533593         1.377335        -1.800458
