19
Iteration:  2366
 C         0.147267        -0.384693        -0.330988
 C         1.627483        -0.025585        -0.019116
 C         2.196649        -0.825034         1.087202
 O         3.566090        -0.346770         1.325761
 C         4.083533         0.170879         0.153828
 C         3.832809        -0.790066        -1.074883
 C         2.538882        -0.060856        -1.330090
 C         3.076790         1.190078        -0.567054
 O         1.823556         1.419218         0.183219
 H        -0.139328        -1.046954         0.541969
 H        -0.480988         0.570481        -0.331045
 H         0.165121        -0.838267        -1.364748
 H         1.725941        -0.461976         2.005594
 H         2.109308        -1.916574         0.863830
 H         5.071656         0.464007         0.364335
 H         4.732859        -0.636142        -1.782539
 H         3.972978        -1.885416        -0.783898
 H         2.068743        -0.196028        -2.276198
 H         3.458962         2.185211        -0.736075
