19
Iteration:  1825charge 0 multiplicity 1
 C         0.111707        -0.391938        -0.215467
 C         1.610842        -0.050214        -0.017267
 C         2.111574        -0.772817         1.153359
 O         3.494222        -0.487799         1.258820
 C         4.044427         0.199497         0.156089
 C         4.054810        -0.721927        -1.147755
 C         2.622469         0.019538        -1.337006
 C         3.079172         1.184277        -0.504864
 O         1.819147         1.370578         0.093050
 H        -0.410187         0.065819         0.708069
 H        -0.342510        -0.100332        -1.189962
 H        -0.059183        -1.475127        -0.156373
 H         1.446034        -0.242682         2.042023
 H         2.133727        -1.803040         1.276012
 H         5.010477         0.587029         0.539311
 H         4.790071        -0.375752        -1.970105
 H         4.121908        -1.819952        -0.965978
 H         2.186945        -0.008346        -2.285465
 H         3.450730         2.137183        -1.006602
