19
Iteration:  1542charge 0 multiplicity 1
 C         0.066643        -0.441575        -0.358270
 C         1.535116        -0.007936        -0.106031
 C         2.251056        -0.891681         1.046602
 O         3.568874        -0.376597         1.377544
 C         4.153812         0.221987         0.133334
 C         3.896357        -0.762072        -1.110155
 C         2.558601        -0.013582        -1.217170
 C         3.052712         1.187578        -0.526646
 O         1.819858         1.429340         0.229421
 H        -0.346475         0.625080        -0.411068
 H         0.183049        -0.894499        -1.278507
 H        -0.443450        -0.910609         0.445454
 H         1.684433        -0.658263         1.973821
 H         2.131822        -1.966189         0.776231
 H         5.233251         0.439154         0.272823
 H         4.706244        -0.670107        -1.845617
 H         3.787786        -1.798672        -0.874812
 H         2.053552         0.082477        -2.338047
 H         3.579868         2.088308        -1.092400
