19
Iteration:  4929charge 0 multiplicity 1
 C         0.128789        -0.341064        -0.164725
 C         1.558740         0.014425        -0.048277
 C         2.109818         0.188899         1.376599
 O         3.504156         0.521534         1.303881
 C         4.055699         0.151784         0.048506
 C         3.846194        -1.334333        -0.150605
 C         2.581586        -0.864198        -1.018128
 C         3.145796         0.540556        -1.154551
 O         1.980652         1.293682        -0.726713
 H        -0.177453        -0.947490         0.694498
 H        -0.496903         0.540874         0.044197
 H        -0.181111        -0.746497        -1.046994
 H         1.581332         1.029655         1.806884
 H         2.067524        -0.737931         2.029814
 H         5.066606         0.588831         0.070711
 H         4.597156        -1.750165        -0.896612
 H         3.682529        -1.998947         0.772653
 H         2.072862        -1.509772        -1.823742
 H         3.877213         0.926316        -1.916838
