19
Iteration:  2146charge 0 multiplicity 1
 C         0.179319        -0.402506        -0.306861
 C         1.570639        -0.079792        -0.131517
 C         2.283890        -0.914631         0.995452
 O         3.444781        -0.189814         1.373461
 C         4.113917         0.161215         0.138930
 C         3.815171        -0.812955        -1.057032
 C         2.523507        -0.031598        -1.319139
 C         3.093795         1.191874        -0.512238
 O         1.883264         1.431010         0.218468
 H        -0.307624        -0.075834         0.613059
 H        -0.168414         0.257916        -1.096975
 H        -0.075687        -1.537515        -0.269885
 H         1.686123        -1.065577         2.007696
 H         2.533011        -2.008290         0.675617
 H         5.078366         0.380370         0.509706
 H         4.626468        -0.714585        -1.731436
 H         3.648673        -1.834527        -0.838122
 H         2.283545        -0.024286        -2.358917
 H         3.443149         2.125765        -0.999879
