19
Iteration:   803charge 0 multiplicity 1
 C         0.109114        -0.398528        -0.378049
 C         1.586132        -0.040668        -0.118712
 C         2.214396        -0.957090         0.970852
 O         3.591610        -0.589401         1.258722
 C         4.105648         0.177902         0.172051
 C         3.916683        -0.585618        -1.228350
 C         2.568110         0.187132        -1.306010
 C         3.049952         1.274943        -0.301514
 O         1.780325         1.305572         0.401977
 H        -0.093040        -0.417681        -1.470728
 H        -0.085404        -1.304213         0.037585
 H        -0.605906         0.224425         0.073004
 H         1.767508        -0.698289         1.945454
 H         2.271335        -2.065953         0.723571
 H         5.010178         0.720623         0.336076
 H         4.571236        -0.095771        -1.977052
 H         4.123043        -1.669038        -1.331298
 H         2.006435         0.375753        -2.341335
 H         3.445454         2.255764        -0.607866
