19
Iteration:  3346charge 0 multiplicity 1
 C         0.140438        -0.396452        -0.241436
 C         1.581071        -0.036340        -0.102377
 C         2.220097        -0.742050         1.202638
 O         3.538000        -0.195963         1.395127
 C         4.063019         0.169518         0.149504
 C         3.822961        -0.896712        -1.104407
 C         2.575557        -0.081684        -1.359809
 C         3.156626         1.119205        -0.633368
 O         1.869944         1.379678         0.089437
 H        -0.254192        -0.556966        -1.232916
 H        -0.091396        -1.338276         0.301704
 H        -0.442427         0.359971         0.263892
 H         1.562998        -0.576479         2.076207
 H         2.121917        -1.868948         1.172619
 H         4.987179         0.691871         0.263995
 H         4.657652        -0.578600        -1.705054
 H         3.566023        -1.876109        -0.777785
 H         2.006213        -0.195958        -2.344762
 H         3.609306         2.070830        -1.031955
