19
Iteration:  1563
 C         0.102392        -0.373874        -0.233212
 C         1.551595        -0.080487        -0.106820
 C         2.133044        -0.788626         1.141782
 O         3.531978        -0.446693         1.297360
 C         4.062084         0.172143         0.187070
 C         3.946974        -0.688691        -1.092905
 C         2.640063         0.007972        -1.329869
 C         3.111810         1.219061        -0.522086
 O         1.829154         1.346573         0.136962
 H        -0.484823         0.520344         0.162224
 H         0.022467        -0.722889        -1.224331
 H        -0.089107        -1.201682         0.451575
 H         1.616490        -0.591607         2.032821
 H         1.976673        -1.860338         0.817427
 H         5.112143         0.535307         0.242507
 H         4.686683        -0.322233        -1.887295
 H         4.233769        -1.721158        -1.035853
 H         1.998161        -0.182926        -2.415026
 H         3.534566         2.227617        -0.947957
