19
Iteration:  4971
 C         0.002422        -0.280947        -0.078008
 C         1.588099        -0.011203        -0.103762
 C         2.112961         0.187898         1.342182
 O         3.501030         0.619346         1.299864
 C         4.061518         0.140319         0.173361
 C         3.881848        -1.362102        -0.231068
 C         2.602930        -0.903481        -0.910089
 C         3.236844         0.512654        -1.104594
 O         1.918884         1.267626        -0.855367
 H        -0.214949        -1.177914        -0.672457
 H        -0.355472        -0.334074         0.929146
 H        -0.502964         0.520136        -0.527357
 H         1.658038         0.981380         1.898616
 H         2.124896        -0.865741         1.835557
 H         5.135009         0.356707         0.071707
 H         4.744027        -1.557319        -0.866539
 H         3.869620        -2.120719         0.630790
 H         2.191772        -1.519041        -1.726527
 H         3.754888         0.841482        -2.106146
