19
Iteration:  1320
 C         0.090125        -0.358008        -0.186915
 C         1.624500        -0.051485        -0.173416
 C         2.101001        -0.930047         1.041073
 O         3.510427        -0.529902         1.326445
 C         4.137896         0.176133         0.195143
 C         3.991205        -0.573439        -1.151165
 C         2.637666         0.009300        -1.377974
 C         3.036568         1.226367        -0.499765
 O         1.805636         1.349257         0.246423
 H        -0.036388        -1.261450         0.280667
 H        -0.466911         0.451624         0.344496
 H        -0.274480        -0.328622        -1.203622
 H         1.690132        -0.762631         1.978040
 H         2.153953        -2.003886         0.829776
 H         5.104878         0.606549         0.457370
 H         4.569107         0.027636        -1.868733
 H         4.216482        -1.639323        -1.312072
 H         2.099142         0.239225        -2.296583
 H         3.420457         2.256254        -0.865266
