19
Iteration:   522
 C         0.166021        -0.398384        -0.438583
 C         1.604957        -0.084829        -0.005049
 C         2.293740        -1.172804         0.816695
 O         3.547529        -0.577306         1.259101
 C         4.054193         0.176199         0.181180
 C         3.802548        -0.544776        -1.249809
 C         2.526607         0.375933        -1.380228
 C         3.039140         1.407067        -0.308571
 O         1.854987         1.245314         0.611561
 H        -0.088219         0.468561        -0.967384
 H         0.223426        -1.376775        -1.011947
 H        -0.525284        -0.516171         0.311823
 H         1.695216        -1.451789         1.801831
 H         2.469230        -2.037076         0.152862
 H         5.056179         0.516075         0.331847
 H         4.541354        -0.288155        -2.019073
 H         3.846536        -1.569551        -1.307521
 H         1.990008         0.719027        -2.451241
 H         3.465656         2.430382        -0.467356
