19
Iteration:  4836
 C        -0.035428        -0.188074        -0.093607
 C         1.527433        -0.051143        -0.085068
 C         2.183593         0.057339         1.320209
 O         3.539936         0.451122         1.400070
 C         4.152524         0.184199         0.163760
 C         3.912332        -1.278400        -0.307536
 C         2.650232        -0.798634        -1.058979
 C         3.146469         0.509098        -1.112338
 O         1.886902         1.280875        -0.762510
 H        -0.462963         0.392610        -0.859113
 H        -0.283940        -1.237201        -0.302711
 H        -0.443823        -0.075915         0.945406
 H         1.547184         0.893647         1.773266
 H         1.983206        -0.931734         1.883338
 H         5.179543         0.574123         0.148372
 H         4.667510        -1.751955        -0.898648
 H         3.628417        -1.782345         0.588816
 H         2.258559        -1.369617        -1.841027
 H         3.619123         1.070982        -1.918456
