19
Iteration:  3705charge 0 multiplicity 1
 C         0.033954        -0.337527        -0.152717
 C         1.559153        -0.051914        -0.050875
 C         2.217971        -0.727028         1.125352
 O         3.499093        -0.103249         1.378824
 C         4.179741         0.186846         0.138369
 C         3.876794        -0.970615        -0.921124
 C         2.552776        -0.239734        -1.291425
 C         3.123650         1.128053        -0.712145
 O         1.891949         1.420218        -0.072143
 H        -0.158327        -1.293920         0.377551
 H        -0.563731         0.574095         0.108197
 H        -0.330499        -0.465697        -1.230899
 H         1.750202        -0.574189         2.118445
 H         2.473338        -1.911192         0.984390
 H         5.122984         0.604355         0.357633
 H         4.503075        -0.960140        -1.753977
 H         3.892628        -1.902910        -0.355382
 H         1.984213        -0.272599        -2.240037
 H         3.505098         1.974812        -1.233793
