19
Iteration:  2691charge 0 multiplicity 1
 C         0.125679        -0.303021        -0.393380
 C         1.570910        -0.143482        -0.018287
 C         2.248113        -0.828883         1.173312
 O         3.638133        -0.563032         1.247514
 C         4.118359         0.180027         0.152186
 C         3.946207        -0.633165        -1.103504
 C         2.496685        -0.100851        -1.242411
 C         2.981100         1.279100        -0.550519
 O         1.769926         1.442043         0.254264
 H         0.108491        -0.262533        -1.483856
 H        -0.243979        -1.245569        -0.042498
 H        -0.376600         0.615868        -0.106637
 H         1.667090        -0.480249         2.021441
 H         2.186724        -1.891724         0.952170
 H         5.153861         0.448205         0.380154
 H         4.490838        -0.262614        -1.965639
 H         4.178895        -1.621762        -0.946777
 H         1.986984        -0.211849        -2.277934
 H         3.435619         2.135720        -1.088595
