19
Iteration:   437
 C         0.099794        -0.341068        -0.360896
 C         1.574754        -0.110420        -0.044449
 C         2.210344        -1.126677         0.800010
 O         3.568311        -0.734761         1.105258
 C         4.151934         0.207511         0.196403
 C         3.956479        -0.307689        -1.241348
 C         2.587002         0.269513        -1.225234
 C         2.991820         1.333244        -0.243319
 O         1.809437         1.240345         0.480896
 H        -0.059543        -1.071413        -1.129152
 H        -0.430517        -0.805580         0.637033
 H        -0.537254         0.580529        -0.371779
 H         1.694835        -1.305975         1.786422
 H         2.117177        -2.159381         0.303107
 H         5.157339         0.424820         0.587606
 H         4.544694         0.357298        -1.960867
 H         4.104707        -1.406775        -1.460610
 H         2.068327         0.601098        -2.100722
 H         3.395562         2.279985        -0.565194
