19
Iteration:  2927charge 0 multiplicity 1
 C         0.049425        -0.321167        -0.341401
 C         1.570871        -0.060033         0.020630
 C         2.200149        -0.819144         1.149735
 O         3.556032        -0.514949         1.312681
 C         4.133878         0.284287         0.078824
 C         3.944725        -0.664541        -1.170256
 C         2.567949        -0.052500        -1.263273
 C         3.059066         1.227984        -0.607234
 O         1.848965         1.300510         0.275928
 H        -0.174923        -0.241702        -1.410176
 H        -0.253761        -1.342340        -0.099042
 H        -0.664055         0.473906         0.088868
 H         1.751262        -0.564727         2.138396
 H         2.080187        -2.022302         1.145762
 H         5.152753         0.691727         0.377134
 H         4.546552        -0.387552        -2.056533
 H         4.152925        -1.767209        -0.974396
 H         2.107414         0.046269        -2.217964
 H         3.473336         2.091047        -1.136671
