19
Iteration:  4786charge 0 multiplicity 1
 C         0.077048        -0.414583        -0.168717
 C         1.535291         0.045034        -0.032936
 C         2.074598         0.065368         1.394046
 O         3.499724         0.546718         1.322199
 C         4.113968         0.202177         0.084674
 C         3.823000        -1.391281        -0.343962
 C         2.520689        -0.769500        -1.021445
 C         3.174884         0.573884        -1.146809
 O         2.078101         1.357883        -0.575019
 H         0.021666        -1.163138        -1.057741
 H        -0.299462        -0.867528         0.773204
 H        -0.624337         0.423026        -0.357620
 H         1.486020         0.688525         2.011026
 H         2.109103        -0.952153         1.713257
 H         5.217446         0.359393         0.147282
 H         4.586954        -1.664356        -1.111576
 H         3.855953        -2.170856         0.523086
 H         2.100488        -1.217954        -1.985938
 H         3.436175         1.076940        -2.141845
