19
Iteration:  3795
 C         0.163106        -0.398850        -0.156893
 C         1.615526         0.025190        -0.106634
 C         2.167387        -0.659716         1.207806
 O         3.577375        -0.209324         1.397875
 C         4.009488         0.193804         0.114885
 C         3.890866        -0.982982        -0.932496
 C         2.611544        -0.261944        -1.345478
 C         3.066559         1.074441        -0.681920
 O         1.846482         1.544151        -0.040612
 H        -0.027280        -0.965366         0.816167
 H        -0.519919         0.434684        -0.082368
 H        -0.196116        -0.818662        -1.155106
 H         1.470264        -0.656647         2.038517
 H         1.929414        -1.632764         0.908400
 H         5.054682         0.555902         0.255983
 H         4.449047        -0.819210        -1.788376
 H         3.868217        -2.011414        -0.560135
 H         2.136588        -0.341560        -2.364090
 H         3.726323         1.721985        -1.308809
