19
Iteration:   482
 C         0.024932        -0.389777        -0.324022
 C         1.528554        -0.092078        -0.129037
 C         2.199730        -1.092596         0.868295
 O         3.610498        -0.705162         1.129400
 C         4.141504         0.236423         0.150169
 C         3.985562        -0.363683        -1.276503
 C         2.609385         0.330991        -1.264098
 C         3.070198         1.305624        -0.238470
 O         1.783260         1.199295         0.516071
 H        -0.097258        -0.215645        -1.411163
 H        -0.477640        -1.368263         0.034108
 H        -0.645068         0.409367         0.266182
 H         1.716824        -1.035149         1.851701
 H         2.125854        -2.177459         0.564007
 H         5.084410         0.419241         0.687317
 H         4.674926         0.185538        -1.980917
 H         4.082506        -1.526669        -1.404981
 H         2.221463         0.523264        -2.194472
 H         3.261280         2.337131        -0.497476
