19
Iteration:  1328charge 0 multiplicity 1
 C         0.093591        -0.392833        -0.213791
 C         1.616233        -0.081376        -0.117716
 C         2.122201        -0.917189         1.055264
 O         3.510597        -0.513785         1.303633
 C         4.175928         0.162387         0.232653
 C         3.989318        -0.610221        -1.238707
 C         2.611715         0.080769        -1.326927
 C         3.030786         1.242123        -0.478905
 O         1.786372         1.393278         0.224407
 H        -0.212383        -1.408561         0.026525
 H        -0.409557         0.273592         0.513447
 H        -0.338141        -0.235305        -1.158105
 H         1.606002        -0.604467         1.943428
 H         2.033216        -2.082485         0.939662
 H         5.178902         0.534835         0.580779
 H         4.770876        -0.154580        -1.846140
 H         4.242824        -1.725413        -1.323879
 H         2.223043         0.101431        -2.514267
 H         3.436709         2.112432        -0.879025
