19
Iteration:   462charge 0 multiplicity 1
 C         0.108689        -0.312594        -0.308796
 C         1.588149        -0.115940        -0.094506
 C         2.223908        -1.070877         0.877053
 O         3.609287        -0.812656         1.058572
 C         4.053776         0.240450         0.225810
 C         4.079052        -0.341184        -1.233672
 C         2.550064         0.259394        -1.408533
 C         2.939237         1.323682        -0.233650
 O         1.773998         1.264335         0.513024
 H        -0.305993        -0.700865        -1.282298
 H        -0.277414        -1.037469         0.362310
 H        -0.433212         0.609222         0.219954
 H         1.749750        -1.092112         1.779675
 H         1.979008        -2.207407         0.459314
 H         4.994100         0.587463         0.799013
 H         4.692833         0.243239        -1.925303
 H         4.405940        -1.470151        -1.158697
 H         2.021319         0.437548        -2.282228
 H         3.489676         2.283496        -0.330134
