19
Iteration:  3643charge 0 multiplicity 1
 C         0.069318        -0.332779        -0.321005
 C         1.537766         0.028543        -0.014023
 C         2.228885        -0.598241         1.291948
 O         3.612692        -0.170129         1.349233
 C         4.112030         0.154336         0.128486
 C         3.927182        -0.959449        -0.938142
 C         2.518645        -0.295512        -1.235956
 C         3.037514         1.040346        -0.733122
 O         1.849082         1.446817        -0.033936
 H         0.043490        -1.313824        -0.835058
 H        -0.486596        -0.462463         0.564294
 H        -0.445624         0.296085        -1.088585
 H         1.755611        -0.251968         2.223340
 H         2.250509        -1.627388         1.150128
 H         5.080164         0.715900         0.297350
 H         4.730029        -0.927393        -1.746740
 H         4.082090        -1.996039        -0.483714
 H         1.992872        -0.500845        -2.195846
 H         3.396622         1.894098        -1.399226
