19
Iteration:  1948charge 0 multiplicity 1
 C         0.110644        -0.413797        -0.215357
 C         1.555605        -0.035302        -0.096665
 C         2.142756        -0.712346         1.147909
 O         3.539074        -0.563790         1.249849
 C         4.115080         0.193716         0.158630
 C         4.012387        -0.669137        -1.064559
 C         2.566547        -0.061373        -1.308592
 C         3.084680         1.193053        -0.528514
 O         1.773132         1.401229         0.100431
 H        -0.361406         0.146813         0.571219
 H        -0.169715         0.105995        -1.175941
 H         0.062476        -1.520077        -0.332688
 H         1.819529        -0.353779         2.216173
 H         1.975156        -1.735364         1.169569
 H         4.964213         0.630434         0.519361
 H         4.665951        -0.261398        -1.868445
 H         4.096898        -1.784302        -0.856778
 H         2.326091        -0.015227        -2.328072
 H         3.530960         2.133009        -0.966910
