19
Iteration:   721charge 0 multiplicity 1
 C         0.113862        -0.361416        -0.257916
 C         1.572264        -0.073053        -0.083069
 C         2.186299        -1.049563         0.993909
 O         3.528068        -0.656228         1.196791
 C         4.093387         0.193875         0.191244
 C         3.994961        -0.461193        -1.219830
 C         2.663601         0.186415        -1.388346
 C         3.034439         1.258228        -0.347543
 O         1.775826         1.351731         0.344150
 H        -0.099328        -1.140098        -0.925568
 H        -0.264265        -0.797161         0.731117
 H        -0.365037         0.576357        -0.570722
 H         1.558037        -1.092205         1.965303
 H         2.037880        -2.129414         0.678274
 H         5.035001         0.777374         0.461096
 H         4.728519         0.031140        -1.840502
 H         4.090242        -1.510355        -1.059805
 H         2.058950         0.251205        -2.453418
 H         3.414652         2.267165        -0.629055
