19
Iteration:  1936
 C         0.094621        -0.404178        -0.260190
 C         1.547072        -0.052112        -0.041589
 C         2.155256        -0.751692         1.137856
 O         3.560612        -0.462657         1.259879
 C         4.156529         0.147567         0.206384
 C         3.986031        -0.727009        -1.105796
 C         2.686879        -0.043431        -1.330375
 C         3.049300         1.206076        -0.530078
 O         1.758436         1.446651         0.116307
 H        -0.479216        -0.315988         0.693446
 H        -0.519027         0.120767        -1.059124
 H        -0.133930        -1.466008        -0.339611
 H         1.479070        -0.336438         2.043566
 H         1.959702        -1.751965         0.995512
 H         5.154612         0.340597         0.451665
 H         4.762221        -0.443422        -1.869445
 H         4.081365        -1.810914        -1.066344
 H         2.057462        -0.085864        -2.139429
 H         3.390787         2.194083        -0.975676
