19
Iteration:   442charge 0 multiplicity 1
 C         0.108291        -0.322158        -0.297942
 C         1.589453        -0.094618        -0.057321
 C         2.206983        -1.125201         0.792245
 O         3.562896        -0.781413         1.092185
 C         4.120489         0.220667         0.200897
 C         3.970611        -0.281211        -1.228140
 C         2.614038         0.226851        -1.203315
 C         2.986092         1.324404        -0.255816
 O         1.788399         1.239909         0.472695
 H        -0.034497        -1.015480        -1.180832
 H        -0.289798        -0.909852         0.424852
 H        -0.434023         0.653339        -0.330786
 H         1.599840        -1.128258         1.694421
 H         2.127832        -2.189472         0.375382
 H         5.130154         0.655992         0.448879
 H         4.524533         0.323953        -1.904944
 H         4.050659        -1.348537        -1.469472
 H         2.145301         0.614941        -2.159254
 H         3.371252         2.295616        -0.662208
