19
Iteration:  4285
 C         0.087644        -0.302453        -0.146861
 C         1.585937        -0.058745        -0.062122
 C         2.184354        -0.467078         1.337007
 O         3.435482         0.244250         1.434489
 C         4.154280         0.205545         0.108983
 C         3.827656        -1.205651        -0.767112
 C         2.605048        -0.464094        -1.203890
 C         3.153866         0.932415        -0.944702
 O         1.918037         1.372641        -0.290802
 H        -0.507992         0.226544         0.684225
 H        -0.170327         0.016357        -1.178211
 H        -0.193703        -1.400531        -0.081307
 H         1.526938         0.024867         2.098190
 H         2.330215        -1.559791         1.426597
 H         5.153399         0.600591         0.344364
 H         4.557001        -1.409166        -1.642314
 H         3.795810        -2.204898        -0.329120
 H         2.213286        -0.837099        -2.197313
 H         3.417619         1.703473        -1.620539
