19
Iteration:  2618charge 0 multiplicity 1
 C         0.092938        -0.351320        -0.232069
 C         1.616194        -0.030238        -0.043274
 C         2.284048        -0.947402         0.987231
 O         3.545251        -0.477796         1.335447
 C         4.054508         0.207250         0.140771
 C         3.877073        -0.697365        -1.044114
 C         2.514752         0.035253        -1.406136
 C         3.062636         1.228260        -0.498208
 O         1.859279         1.410411         0.192630
 H        -0.074337        -0.639442        -1.326833
 H        -0.097141        -1.240523         0.455441
 H        -0.531601         0.497604        -0.044795
 H         1.690489        -0.928874         1.927331
 H         2.413764        -2.036578         0.511331
 H         4.940087         0.679585         0.454879
 H         4.734376        -0.413704        -1.738100
 H         3.852959        -1.827126        -0.849155
 H         2.011812         0.170258        -2.322977
 H         3.523636         2.174404        -0.693906
