19
Iteration:   191charge 0 multiplicity 1
 C         0.204819        -0.305265        -0.274719
 C         1.629061        -0.113485        -0.148164
 C         2.231756        -1.230241         0.724478
 O         3.530162        -0.791533         1.086463
 C         4.115330         0.233685         0.248596
 C         3.931293        -0.188002        -1.228937
 C         2.528310         0.287393        -1.251985
 C         2.991110         1.357287        -0.241493
 O         1.779024         1.175619         0.558642
 H        -0.132743        -0.182556         0.812847
 H        -0.295862         0.451527        -0.816303
 H        -0.212938        -1.359004        -0.511619
 H         1.538557        -1.470177         1.661826
 H         2.264862        -2.104202        -0.016492
 H         5.142222         0.506055         0.655807
 H         4.527090         0.490924        -1.899115
 H         4.258259        -1.245549        -1.551817
 H         2.181582         0.524008        -2.348963
 H         3.163003         2.418488        -0.559866
