19
Iteration:  2677charge 0 multiplicity 1
 C         0.129628        -0.340718        -0.396786
 C         1.614003        -0.081007        -0.034629
 C         2.175457        -0.842798         1.111925
 O         3.613644        -0.479099         1.393366
 C         4.121830         0.213986         0.132720
 C         3.904224        -0.653948        -1.190544
 C         2.541075        -0.004225        -1.313605
 C         2.949991         1.175515        -0.556149
 O         1.883159         1.357999         0.271937
 H        -0.080545        -0.543821        -1.393762
 H        -0.350245        -1.119798         0.124127
 H        -0.487591         0.510176         0.002357
 H         1.753316        -0.641755         2.147427
 H         2.047769        -2.017139         1.082136
 H         5.144880         0.693407         0.490567
 H         4.608552        -0.305254        -1.933483
 H         3.982717        -1.770874        -1.282686
 H         1.892195         0.046173        -2.263302
 H         3.274065         2.170599        -0.975865
