19
Iteration:  3673
 C         0.136445        -0.357076        -0.114838
 C         1.615139        -0.103061        -0.163105
 C         2.154402        -0.613450         1.225965
 O         3.468207        -0.130013         1.387841
 C         4.107624         0.121552         0.183340
 C         3.904000        -0.934853        -0.990513
 C         2.575794        -0.234352        -1.390556
 C         3.100727         1.133095        -0.739869
 O         1.908164         1.398846        -0.041511
 H        -0.112617        -1.440679         0.104059
 H        -0.214820         0.117932         0.817336
 H        -0.445582         0.005333        -1.024369
 H         1.471988        -0.183996         1.962029
 H         2.045462        -1.749942         1.514016
 H         5.034510         0.567110         0.313401
 H         4.641438        -0.841410        -1.684458
 H         3.993134        -1.895433        -0.489715
 H         2.012639        -0.386763        -2.337255
 H         3.388807         2.061256        -1.182613
