19
Iteration:  1495charge 0 multiplicity 1
 C         0.116519        -0.365921        -0.404912
 C         1.636495        -0.106724        -0.086985
 C         2.137355        -0.874210         1.127702
 O         3.569753        -0.287618         1.366500
 C         4.125116         0.198291         0.092903
 C         3.876288        -0.752492        -1.159284
 C         2.557861         0.025745        -1.301305
 C         3.036647         1.194913        -0.515498
 O         1.857171         1.296066         0.317653
 H        -0.119601         0.058126        -1.321903
 H        -0.094299        -1.424875        -0.308409
 H        -0.398765         0.314267         0.327697
 H         1.551255        -0.819723         1.945547
 H         2.370060        -1.949487         0.834073
 H         5.064518         0.548517         0.562109
 H         4.591253        -0.513859        -1.996616
 H         3.839351        -1.848187        -1.033702
 H         2.045399         0.218082        -2.400379
 H         3.448510         2.136577        -0.906390
