19
Iteration:  2876charge 0 multiplicity 1
 C         0.111006        -0.354585        -0.217153
 C         1.596671        -0.041143        -0.124071
 C         2.222748        -0.995618         0.987007
 O         3.542582        -0.314071         1.355276
 C         4.130816         0.179067         0.155290
 C         3.848537        -0.777744        -1.011032
 C         2.540756         0.066205        -1.402084
 C         3.051193         1.311481        -0.528591
 O         1.878861         1.336300         0.228258
 H        -0.204839        -0.529382        -1.290834
 H        -0.058472        -1.334005         0.197058
 H        -0.606109         0.347047         0.215438
 H         1.785476        -1.223194         1.959368
 H         2.446010        -1.908572         0.594801
 H         5.109488         0.575414         0.311956
 H         4.585274        -0.777463        -1.853216
 H         3.506988        -1.774293        -0.794186
 H         2.028755         0.114766        -2.422500
 H         3.608056         2.199365        -0.890700
