19
Iteration:  2408charge 0 multiplicity 1
 C         0.108602        -0.382128        -0.246037
 C         1.509586        -0.114855        -0.145459
 C         2.243323        -0.847164         1.079539
 O         3.491438        -0.272256         1.346542
 C         4.085201         0.191622         0.135384
 C         3.855268        -0.815731        -1.005005
 C         2.552365         0.001892        -1.403474
 C         3.141370         1.269790        -0.536376
 O         1.947759         1.344646         0.244897
 H        -0.318916        -0.881358         0.632429
 H        -0.597660         0.350039        -0.620163
 H         0.032178        -1.172799        -1.084046
 H         1.510758        -0.618524         1.821136
 H         2.347508        -1.970229         0.907601
 H         5.058032         0.541331         0.301513
 H         4.638661        -0.564640        -1.892861
 H         3.711768        -1.921615        -1.054042
 H         1.981861        -0.028576        -2.325846
 H         3.626249         2.163605        -1.012853
