19
Iteration:  4731charge 0 multiplicity 1
 C         0.116317        -0.220359        -0.137267
 C         1.612341        -0.039164        -0.072491
 C         2.159709        -0.037334         1.416649
 O         3.512876         0.404006         1.396264
 C         4.046478         0.209852         0.119714
 C         3.855462        -1.256920        -0.375133
 C         2.577252        -0.845156        -1.066096
 C         3.156299         0.689374        -1.143646
 O         1.912937         1.314994        -0.689114
 H        -0.349746        -1.101786         0.470514
 H        -0.405616         0.657108         0.288126
 H        -0.253318        -0.437287        -1.172193
 H         1.545192         0.634334         1.965401
 H         2.100906        -1.070208         1.836952
 H         5.117769         0.548722         0.192957
 H         4.684067        -1.629415        -0.994631
 H         3.786327        -2.073271         0.419791
 H         2.116669        -1.717747        -1.648639
 H         3.525292         1.393085        -1.934243
