19
Iteration:  4803charge 0 multiplicity 1
 C         0.172348        -0.312217        -0.163725
 C         1.610375        -0.036555        -0.024026
 C         2.152345         0.051797         1.389388
 O         3.458021         0.476195         1.325934
 C         4.096219         0.122443         0.087785
 C         3.784532        -1.257179        -0.357857
 C         2.555639        -0.758423        -0.984502
 C         3.180399         0.593850        -1.096774
 O         1.947191         1.291710        -0.698213
 H        -0.123061        -0.587767        -1.130437
 H        -0.057796        -1.155223         0.489650
 H        -0.483696         0.551306         0.046002
 H         1.664621         0.941927         1.926528
 H         1.966667        -0.898232         2.015478
 H         5.029299         0.650524         0.215759
 H         4.472967        -1.748170        -1.022408
 H         3.646561        -1.989558         0.432021
 H         1.964274        -1.264576        -1.685760
 H         3.781077         1.077846        -1.895579
