19
Iteration:   821
 C         0.051443        -0.477388        -0.274503
 C         1.529222        -0.108662        -0.064221
 C         2.136428        -0.911744         1.013053
 O         3.536233        -0.606540         1.197563
 C         4.128794         0.157514         0.177947
 C         4.068155        -0.459379        -1.262009
 C         2.639531         0.172284        -1.326788
 C         3.069576         1.266019        -0.363294
 O         1.804312         1.347770         0.345877
 H        -0.286626        -0.230969        -1.307879
 H        -0.107007        -1.573325         0.022352
 H        -0.548101         0.250588         0.405845
 H         1.520129        -0.746630         2.011549
 H         2.005568        -1.906778         0.644261
 H         5.197508         0.222717         0.535923
 H         4.720092        -0.036253        -1.983849
 H         3.928386        -1.555956        -1.245943
 H         2.163705         0.493633        -2.339739
 H         3.444208         2.242338        -0.565286
