19
Iteration:  4111
 C         0.068364        -0.304491        -0.179862
 C         1.568115        -0.033133        -0.061184
 C         2.117772        -0.408693         1.257370
 O         3.512104        -0.028457         1.394287
 C         4.183846         0.137721         0.117409
 C         3.940392        -0.989423        -0.857124
 C         2.586683        -0.417215        -1.218999
 C         3.060555         0.964957        -0.858905
 O         1.889263         1.364113        -0.120200
 H        -0.189220        -1.053551         0.626792
 H        -0.515683         0.615095        -0.081225
 H        -0.252742        -0.723983        -1.236076
 H         1.649107         0.173682         2.086518
 H         2.081090        -1.551981         1.526785
 H         5.213824         0.459908         0.228343
 H         4.666723        -0.794045        -1.717831
 H         3.989165        -2.109555        -0.630713
 H         2.186423        -0.611755        -2.205796
 H         3.404630         1.529254        -1.701207
