19
Iteration:  4044charge 0 multiplicity 1
 C         0.088729        -0.384840        -0.211789
 C         1.538156        -0.004135        -0.074580
 C         2.223495        -0.597578         1.251452
 O         3.576825        -0.007623         1.424226
 C         4.075377         0.178490         0.070320
 C         3.781064        -0.991599        -0.830793
 C         2.572534        -0.344954        -1.276529
 C         3.138133         1.016737        -0.789969
 O         1.941509         1.475224        -0.107125
 H        -0.563240         0.413185         0.179023
 H        -0.183103        -0.706678        -1.263852
 H        -0.151543        -1.364823         0.435109
 H         1.499909        -0.341824         2.070814
 H         2.169834        -1.706294         1.035478
 H         5.058124         0.481550         0.183757
 H         4.505127        -1.227022        -1.683108
 H         3.722503        -2.022208        -0.427305
 H         2.108752        -0.608958        -2.263780
 H         3.500076         1.846425        -1.331326
