19
Iteration:   198
 C         0.158325        -0.317101        -0.236829
 C         1.594377        -0.148911        -0.154630
 C         2.238323        -1.183149         0.729627
 O         3.562608        -0.834702         1.080804
 C         4.148365         0.199418         0.197057
 C         3.989510        -0.195115        -1.183575
 C         2.552500         0.345019        -1.274972
 C         2.919679         1.348172        -0.222839
 O         1.760244         1.216220         0.529264
 H        -0.175272        -0.162059         0.734850
 H        -0.228078         0.381252        -0.983725
 H        -0.103268        -1.384856        -0.494499
 H         1.599596        -1.344040         1.568017
 H         2.195499        -2.127784         0.159706
 H         5.138882         0.382847         0.634823
 H         4.471100         0.480124        -1.827961
 H         4.344729        -1.134408        -1.507451
 H         2.006551         0.584712        -2.159350
 H         3.331962         2.311531        -0.452532
