19
Iteration:  4243charge 0 multiplicity 1
 C        -0.007036        -0.323036        -0.152494
 C         1.509150        -0.041788        -0.010809
 C         2.154997        -0.396295         1.321975
 O         3.508472        -0.003332         1.409715
 C         4.183974         0.231583         0.123022
 C         3.971046        -1.120650        -0.743120
 C         2.626281        -0.469683        -1.195240
 C         3.120073         1.013522        -0.938942
 O         1.909671         1.394084        -0.337603
 H        -0.636194         0.600579        -0.452895
 H        -0.104411        -1.240640        -0.820137
 H        -0.424576        -0.624802         0.859956
 H         1.579611         0.205731         1.976461
 H         1.988738        -1.476105         1.473396
 H         5.227529         0.570814         0.093615
 H         4.523206        -1.421401        -1.619453
 H         3.847194        -1.918850        -0.094416
 H         2.032076        -0.636302        -2.068174
 H         3.543512         1.667616        -1.697746
