19
Iteration:  2011
 C         0.099628        -0.353203        -0.354473
 C         1.581276        -0.106862        -0.107932
 C         2.314632        -0.910328         1.069059
 O         3.507834        -0.211148         1.384969
 C         4.102642         0.213537         0.190683
 C         3.806892        -0.806073        -1.067946
 C         2.554266        -0.021317        -1.356360
 C         3.051520         1.186734        -0.551286
 O         1.904948         1.340360         0.271502
 H        -0.417853         0.326545         0.383963
 H        -0.168364        -0.115945        -1.427644
 H        -0.302955        -1.339334        -0.189314
 H         1.551483        -0.926104         1.934746
 H         2.532181        -1.879777         0.521251
 H         5.109966         0.629902         0.418584
 H         4.536396        -0.753341        -1.912155
 H         3.634948        -1.800310        -0.974083
 H         2.207806        -0.006796        -2.398478
 H         3.545707         2.063208        -1.039125
