19
Iteration:  2486
 C         0.141852        -0.348114        -0.295992
 C         1.566025        -0.071269        -0.076520
 C         2.204830        -0.881363         1.098756
 O         3.493265        -0.349097         1.266797
 C         4.048224         0.191024         0.107494
 C         3.926161        -0.766486        -1.124131
 C         2.636038        -0.028984        -1.317450
 C         3.054589         1.263029        -0.491631
 O         1.850503         1.330461         0.271212
 H        -0.220270         0.680989        -0.026435
 H        -0.183034        -0.718175        -1.303348
 H        -0.094735        -1.053463         0.489931
 H         1.635934        -0.483495         1.925152
 H         2.118632        -2.002916         0.967526
 H         4.999169         0.502823         0.395303
 H         4.630531        -0.597641        -2.034079
 H         4.127293        -1.902571        -1.004110
 H         2.126296         0.071402        -2.232814
 H         3.388266         2.196772        -0.917767
