19
Iteration:  4908
 C         0.046299        -0.325138        -0.232595
 C         1.555142        -0.036182        -0.052606
 C         2.166845         0.110949         1.335009
 O         3.593592         0.599767         1.310678
 C         4.199396         0.138498         0.080831
 C         3.773930        -1.350024        -0.191544
 C         2.587057        -0.816001        -0.894950
 C         3.162419         0.638100        -1.160607
 O         1.891137         1.229348        -0.687448
 H        -0.602671        -0.368833         0.676437
 H        -0.443623         0.495347        -0.806187
 H        -0.020425        -1.220539        -0.797179
 H         1.630554         0.878451         1.869967
 H         2.087671        -0.845866         1.853963
 H         5.235133         0.410595         0.272909
 H         4.493738        -1.967558        -0.827744
 H         3.430763        -1.862885         0.751995
 H         2.011390        -1.325953        -1.754459
 H         3.500309         0.932213        -2.173362
