19
Iteration:  4128
 C         0.121665        -0.302150        -0.141510
 C         1.616342        -0.071522        -0.011648
 C         2.115388        -0.505286         1.321048
 O         3.493921        -0.059346         1.383168
 C         4.049144         0.210702         0.071938
 C         3.977158        -1.081778        -0.844324
 C         2.558389        -0.437573        -1.232801
 C         3.134213         1.045120        -0.863712
 O         1.890049         1.430707        -0.265341
 H        -0.208851        -1.250207         0.230563
 H        -0.372831         0.510150         0.440915
 H        -0.192231        -0.184505        -1.178274
 H         1.699387        -0.052571         2.260530
 H         2.119964        -1.565826         1.443270
 H         5.011159         0.653300         0.378787
 H         4.468038        -0.933486        -1.787554
 H         3.948570        -1.930185        -0.190033
 H         1.913191        -0.766819        -2.116575
 H         3.568109         1.985238        -1.300693
