19
Iteration:  1286
 C         0.049537        -0.288254        -0.341017
 C         1.507252        -0.113651        -0.079135
 C         2.255985        -1.059789         0.960669
 O         3.549643        -0.390931         1.266973
 C         4.132435         0.261569         0.108626
 C         3.963761        -0.674068        -1.064928
 C         2.623423         0.019354        -1.287269
 C         3.049323         1.275628        -0.462299
 O         1.827575         1.334979         0.370432
 H        -0.369108        -0.824778         0.410681
 H        -0.438578         0.720546        -0.365599
 H        -0.144797        -0.906167        -1.180415
 H         1.697738        -1.181294         1.796286
 H         2.346522        -2.049269         0.482314
 H         5.124252         0.585319         0.498749
 H         4.471772        -0.549417        -2.008963
 H         3.851800        -1.791035        -0.940148
 H         2.116339         0.268995        -2.289004
 H         3.293539         2.263058        -0.937253
