19
Iteration:  2429charge 0 multiplicity 1
 C         0.194961        -0.351486        -0.326698
 C         1.534161        -0.090516         0.050559
 C         2.163536        -0.793535         1.084188
 O         3.528871        -0.392274         1.304304
 C         4.123760         0.188737         0.120557
 C         3.949333        -0.723885        -1.124452
 C         2.598106        -0.089641        -1.329719
 C         3.031737         1.191024        -0.558782
 O         1.833526         1.390313         0.226973
 H        -0.359784        -0.312215         0.604007
 H        -0.214928         0.495329        -0.813027
 H        -0.262028        -1.271938        -0.742819
 H         1.645573        -0.545420         2.011399
 H         2.001786        -1.918325         0.923942
 H         5.090733         0.572152         0.371753
 H         4.714103        -0.536196        -2.010240
 H         3.984350        -1.752230        -0.753871
 H         2.022224        -0.082870        -2.276508
 H         3.397341         2.104145        -1.128662
