19
Iteration:  4287charge 0 multiplicity 1
 C         0.079218        -0.309380        -0.155036
 C         1.569165        -0.056814        -0.053844
 C         2.188138        -0.464537         1.367658
 O         3.435799         0.240747         1.413072
 C         4.146661         0.200175         0.123411
 C         3.829084        -1.205274        -0.758951
 C         2.613936        -0.465249        -1.211970
 C         3.177544         0.936803        -0.948529
 O         1.914265         1.375623        -0.289991
 H        -0.509103         0.168318         0.744313
 H        -0.215227         0.088128        -1.223064
 H        -0.202514        -1.402506        -0.157835
 H         1.564299        -0.008873         2.102466
 H         2.349328        -1.554100         1.367067
 H         5.231569         0.605458         0.239258
 H         4.504860        -1.376220        -1.592726
 H         3.776849        -2.171497        -0.334342
 H         2.227703        -0.862850        -2.140087
 H         3.390202         1.732962        -1.667128
