19
Iteration:  3444charge 0 multiplicity 1
 C         0.090270        -0.377524        -0.151883
 C         1.567606        -0.034423        -0.056841
 C         2.137334        -0.687128         1.154851
 O         3.557038        -0.225018         1.357849
 C         4.149432         0.188613         0.119845
 C         3.937314        -0.914377        -0.918860
 C         2.600451        -0.138726        -1.344898
 C         3.078766         1.085704        -0.659353
 O         1.831407         1.452727        -0.052213
 H        -0.348161         0.205794         0.689965
 H        -0.550410        -0.179185        -1.057894
 H        -0.224879        -1.411220         0.037782
 H         1.415725        -0.476754         1.996256
 H         2.043756        -1.796519         1.193193
 H         5.144888         0.555692         0.129174
 H         4.771048        -0.893713        -1.714245
 H         3.874832        -2.057558        -0.568124
 H         2.141525        -0.106119        -2.367074
 H         3.747746         1.751606        -1.278788
