19
Iteration:  2775
 C         0.059756        -0.373473        -0.370742
 C         1.532630        -0.097479        -0.034840
 C         2.284379        -0.929227         0.997001
 O         3.560774        -0.280854         1.360140
 C         4.139736         0.188447         0.104136
 C         3.818484        -0.849988        -1.016831
 C         2.569770         0.046994        -1.311754
 C         3.051875         1.248043        -0.569576
 O         1.877314         1.443818         0.284601
 H        -0.541107         0.478385        -0.644682
 H        -0.107102        -1.178845        -1.100788
 H        -0.364627        -0.900712         0.594245
 H         1.668504        -1.012875         1.932839
 H         2.589383        -1.944518         0.777537
 H         5.238862         0.492063         0.328547
 H         4.568625        -0.735575        -1.871014
 H         3.745283        -2.004787        -0.839601
 H         2.121864        -0.017067        -2.318676
 H         3.554121         2.118870        -1.064297
