19
Iteration:  3823
 C         0.055785        -0.348029        -0.223852
 C         1.586157        -0.040694        -0.080877
 C         2.211877        -0.705090         1.238985
 O         3.529920        -0.097352         1.395823
 C         4.178704         0.178739         0.097581
 C         3.826533        -0.901266        -0.912887
 C         2.549404        -0.194399        -1.299300
 C         3.160981         1.138838        -0.753657
 O         1.882178         1.342745        -0.010090
 H        -0.251491        -1.094659         0.504599
 H        -0.517403         0.588649        -0.066464
 H        -0.345355        -0.800086        -1.146193
 H         1.523760        -0.603855         2.116946
 H         2.166502        -1.853077         0.882730
 H         5.219150         0.313510         0.330028
 H         4.447875        -1.014422        -1.919161
 H         3.676304        -1.828276        -0.319090
 H         2.064651        -0.363473        -2.258908
 H         3.558072         1.896009        -1.419700
