19
Iteration:  3617
 C         0.124404        -0.323205        -0.400593
 C         1.605830        -0.130935        -0.001300
 C         2.219638        -0.614959         1.276647
 O         3.587182        -0.101991         1.348468
 C         4.130654         0.235945         0.040840
 C         3.777678        -0.965786        -0.876126
 C         2.530307        -0.290144        -1.180586
 C         3.046418         1.065531        -0.788162
 O         1.905311         1.398279         0.063047
 H        -0.026989        -1.061070        -1.212476
 H        -0.574637        -0.548579         0.483718
 H        -0.247829         0.583158        -0.924913
 H         1.713409        -0.145638         2.106588
 H         2.361380        -1.677915         1.145910
 H         5.058890         0.737605         0.145514
 H         4.465508        -1.067071        -1.633293
 H         3.853457        -1.906440        -0.369681
 H         1.950381        -0.531741        -2.077122
 H         3.315212         1.857183        -1.425031
