19
Iteration:  4631charge 0 multiplicity 1
 C         0.077707        -0.395985        -0.158901
 C         1.591312         0.027589        -0.058776
 C         2.163381        -0.053953         1.324506
 O         3.506447         0.414228         1.321522
 C         4.062205         0.143432         0.129734
 C         3.839063        -1.269933        -0.395710
 C         2.520341        -0.666367        -1.098738
 C         3.230834         0.697601        -1.065913
 O         1.951068         1.346173        -0.526717
 H        -0.527727         0.444262        -0.612789
 H        -0.164075        -1.339629        -0.690350
 H        -0.437720        -0.736187         0.829611
 H         1.631002         0.506285         2.028275
 H         1.979581        -1.149614         1.743494
 H         5.102950         0.379455         0.124791
 H         4.650360        -1.371347        -1.084144
 H         3.711890        -2.101679         0.367522
 H         2.041678        -1.079580        -2.009376
 H         3.841295         1.207816        -1.883520
