19
Iteration:   162charge 0 multiplicity 1
 C         0.040130        -0.326143        -0.393031
 C         1.528118        -0.154257        -0.100488
 C         2.359652        -1.188081         0.701974
 O         3.548666        -0.586324         1.161088
 C         4.165555         0.190437         0.092176
 C         3.967027        -0.379135        -1.248757
 C         2.489576         0.417493        -1.307994
 C         2.970788         1.275568        -0.160057
 O         1.831029         1.128926         0.712597
 H        -0.649994        -0.437876         0.493618
 H        -0.462971         0.696054        -0.833607
 H        -0.120631        -1.076297        -1.078458
 H         1.871258        -1.628969         1.529929
 H         2.649408        -1.939708        -0.008726
 H         5.155505         0.498974         0.335198
 H         4.733287         0.128152        -1.968557
 H         3.998400        -1.463082        -1.221905
 H         2.267143         0.819527        -2.259380
 H         3.194085         2.365186        -0.283190
