19
Iteration:  4445
 C         0.066237        -0.281477        -0.216135
 C         1.588100        -0.070420        -0.035223
 C         2.163529        -0.284405         1.419045
 O         3.474711         0.304294         1.403768
 C         4.117022         0.244850         0.070090
 C         3.893869        -1.260649        -0.666945
 C         2.536996        -0.575935        -1.109333
 C         3.139596         0.781229        -0.940565
 O         1.961493         1.369105        -0.419206
 H        -0.589329         0.572074        -0.475931
 H         0.001472        -1.009800        -1.155358
 H        -0.391274        -0.881796         0.723132
 H         1.588202         0.369075         2.091649
 H         1.990322        -1.346145         1.832179
 H         5.061264         0.707568         0.149663
 H         4.437770        -1.413139        -1.539738
 H         4.047180        -2.159207        -0.045204
 H         2.161011        -0.877499        -2.129207
 H         3.616540         1.335923        -1.799592
