19
Iteration:  1231charge 0 multiplicity 1
 C         0.160612        -0.469276        -0.349990
 C         1.588613        -0.070934        -0.042750
 C         2.168726        -0.864334         1.068943
 O         3.552601        -0.531552         1.245417
 C         4.150620         0.105776         0.134067
 C         3.933498        -0.587556        -1.199727
 C         2.524831         0.159598        -1.304455
 C         3.063798         1.339050        -0.406842
 O         1.823501         1.315888         0.342862
 H        -0.583427         0.039385         0.209805
 H        -0.208398        -0.252619        -1.454298
 H        -0.001957        -1.531689        -0.213992
 H         1.632794        -0.596646         1.965647
 H         2.080548        -1.946359         0.832883
 H         5.196963         0.305965         0.516578
 H         4.573917        -0.200083        -1.993592
 H         3.883144        -1.731349        -1.408377
 H         1.906740         0.298175        -2.319991
 H         3.379842         2.403984        -0.658004
