19
Iteration:  2045charge 0 multiplicity 1
 C         0.135615        -0.383903        -0.251855
 C         1.601191        -0.072335        -0.097832
 C         2.178741        -0.801145         1.038091
 O         3.497860        -0.336130         1.293219
 C         4.114804         0.227408         0.188194
 C         3.906675        -0.780389        -1.055646
 C         2.624564        -0.038957        -1.317737
 C         3.085334         1.154406        -0.546606
 O         1.829360         1.390595         0.178841
 H        -0.274463        -0.188878         0.739196
 H        -0.410492         0.297283        -0.958230
 H         0.086951        -1.457163        -0.496914
 H         1.530599        -0.764777         2.017435
 H         2.130932        -1.921688         0.760071
 H         5.033032         0.581649         0.575426
 H         4.369672        -0.687190        -2.033810
 H         3.877516        -1.758930        -0.771796
 H         2.141030        -0.048274        -2.256605
 H         3.481312         2.109950        -0.936848
