19
Iteration:  1091
 C         0.017055        -0.550642        -0.321543
 C         1.645319        -0.058364        -0.072735
 C         2.192517        -0.903421         1.052617
 O         3.590128        -0.666901         1.199992
 C         4.091835         0.121405         0.164203
 C         3.947420        -0.549720        -1.230808
 C         2.571452         0.225611        -1.287969
 C         3.091537         1.349820        -0.343471
 O         1.812265         1.414626         0.314194
 H        -0.583368         0.326093        -0.338376
 H        -0.045294        -1.254455        -1.233315
 H        -0.123612        -1.177888         0.564231
 H         1.505330        -0.460344         1.953944
 H         1.974892        -1.900556         0.815727
 H         5.077972         0.508221         0.507148
 H         4.467092        -0.130333        -2.016195
 H         4.117546        -1.532906        -1.328694
 H         1.940099         0.341484        -2.291860
 H         3.512097         2.384070        -0.707281
