19
Iteration:  4980
 C         0.025027        -0.269026        -0.104064
 C         1.547320         0.029106        -0.080398
 C         2.131114         0.173907         1.321730
 O         3.511563         0.626311         1.341502
 C         4.123964         0.205433         0.076074
 C         3.848227        -1.411862        -0.172701
 C         2.610944        -0.908210        -0.957257
 C         3.193706         0.562473        -1.094741
 O         1.961841         1.163207        -0.831226
 H        -0.389372        -1.004244        -0.838651
 H        -0.369702        -0.721235         0.812039
 H        -0.461435         0.751031        -0.338240
 H         1.484603         0.870032         1.874612
 H         2.120300        -0.750390         1.901638
 H         5.124361         0.714750         0.012162
 H         4.536159        -1.828511        -0.850536
 H         3.705926        -1.994027         0.742435
 H         2.185636        -1.556095        -1.688013
 H         3.694653         1.014601        -2.020572
