19
Iteration:  2659charge 0 multiplicity 1
 C         0.097227        -0.377680        -0.266297
 C         1.548503        -0.129334        -0.116589
 C         2.234399        -0.876525         1.097983
 O         3.482339        -0.297958         1.272236
 C         4.075253         0.156403         0.128190
 C         3.896315        -0.726477        -1.167921
 C         2.580461         0.099840        -1.364060
 C         3.142460         1.225484        -0.467239
 O         1.874962         1.294069         0.314403
 H        -0.029768        -0.673237        -1.349273
 H        -0.239814        -1.234163         0.370394
 H        -0.581914         0.466498        -0.039052
 H         1.570712        -0.761025         1.943862
 H         2.226942        -1.897680         0.896733
 H         5.120645         0.240775         0.308611
 H         4.579316        -0.346827        -1.950438
 H         4.021786        -1.750193        -0.932260
 H         2.022416         0.101189        -2.328371
 H         3.659878         2.149013        -0.759984
