19
Iteration:   146charge 0 multiplicity 1
 C         0.070474        -0.320260        -0.481217
 C         1.565845        -0.081809        -0.129482
 C         2.359179        -1.169277         0.686714
 O         3.658695        -0.590820         1.170992
 C         4.145698         0.230140         0.183338
 C         3.771895        -0.405558        -1.307430
 C         2.540814         0.353990        -1.195919
 C         3.043015         1.355715        -0.125786
 O         1.785387         1.083534         0.672629
 H        -0.452938        -0.713638         0.410018
 H        -0.318355         0.563259        -0.774529
 H        -0.069811        -1.165282        -1.315108
 H         1.747404        -1.313263         1.662479
 H         2.490635        -2.132632         0.110033
 H         5.221467         0.489814         0.462558
 H         4.375558        -0.031598        -2.100585
 H         3.731825        -1.521086        -1.519444
 H         1.848734         0.660647        -2.062749
 H         3.324011         2.403570        -0.243384
