19
Iteration:  2374charge 0 multiplicity 1
 C         0.163554        -0.357277        -0.309046
 C         1.536961        -0.022299        -0.017157
 C         2.223647        -0.809948         1.026640
 O         3.538102        -0.303956         1.381734
 C         4.130980         0.146894         0.138593
 C         3.845449        -0.884049        -1.076159
 C         2.561852         0.008106        -1.313028
 C         3.104910         1.234265        -0.554632
 O         1.810176         1.387450         0.183850
 H        -0.151897        -1.099396         0.423580
 H        -0.611235         0.349200        -0.333780
 H         0.154972        -1.036451        -1.225896
 H         1.747310        -0.804613         2.008969
 H         2.351820        -1.914400         0.885649
 H         5.138260         0.480160         0.369211
 H         4.698091        -0.624179        -1.897267
 H         3.695950        -1.966536        -0.916487
 H         2.099808         0.013414        -2.323584
 H         3.456910         2.177600        -1.105406
