19
Iteration:  2883
 C         0.135795        -0.342144        -0.256468
 C         1.572681        -0.016407        -0.118369
 C         2.265103        -1.010983         0.972718
 O         3.543049        -0.265299         1.411203
 C         4.093277         0.226066         0.177447
 C         3.791440        -0.777376        -1.098950
 C         2.536693         0.054517        -1.381281
 C         3.073254         1.239251        -0.512569
 O         1.905867         1.295619         0.235282
 H        -0.233104        -0.504568        -1.257353
 H         0.025897        -1.312827         0.275870
 H        -0.516245         0.521284         0.177169
 H         1.602394        -1.109121         1.855308
 H         2.474613        -2.051369         0.542480
 H         5.181496         0.512293         0.406729
 H         4.512428        -0.875365        -1.892008
 H         3.745730        -1.895076        -0.866859
 H         2.087213         0.236893        -2.326918
 H         3.283104         2.214735        -0.970839
