19
Iteration:   724
 C         0.092685        -0.353505        -0.253083
 C         1.580837        -0.076051        -0.094399
 C         2.182468        -1.064306         0.976121
 O         3.533796        -0.640366         1.223171
 C         4.103023         0.204080         0.202689
 C         3.971361        -0.465522        -1.249975
 C         2.666160         0.183267        -1.349744
 C         3.025860         1.285107        -0.366710
 O         1.798101         1.328847         0.339709
 H        -0.139219        -1.099032        -1.038882
 H        -0.194172        -0.792174         0.587684
 H        -0.462281         0.573195        -0.518464
 H         1.493587        -1.070367         1.993971
 H         2.152500        -2.220814         0.725825
 H         5.033092         0.738990         0.445382
 H         4.715493         0.041758        -1.771625
 H         4.106250        -1.561426        -1.064466
 H         2.036518         0.278026        -2.424808
 H         3.442361         2.221615        -0.645480
