19
Iteration:  2568charge 0 multiplicity 1
 C         0.019663        -0.342990        -0.420381
 C         1.566823        -0.192128        -0.054697
 C         2.107728        -0.773226         1.181148
 O         3.650164        -0.496205         1.238470
 C         4.045415         0.194680         0.112142
 C         3.954740        -0.630351        -1.173635
 C         2.598661        -0.022291        -1.341865
 C         3.037525         1.207447        -0.525319
 O         1.893731         1.333669         0.374527
 H        -0.147695        -0.029878        -1.423097
 H        -0.201775        -1.346303        -0.125063
 H        -0.373729         0.517600         0.292351
 H         1.691679        -0.335515         2.185102
 H         2.085293        -1.809123         1.297876
 H         5.103054         0.708049         0.464661
 H         4.529274        -0.165660        -1.909022
 H         4.096161        -1.659968        -0.899774
 H         1.975660        -0.015896        -2.353097
 H         3.538675         2.121949        -0.993599
