19
Iteration:  2638
 C         0.087515        -0.449557        -0.211167
 C         1.555083        -0.018671        -0.161199
 C         2.236513        -0.938042         0.904286
 O         3.497365        -0.297603         1.333810
 C         4.166530         0.159695         0.185958
 C         3.848734        -0.787319        -1.097009
 C         2.599583         0.067994        -1.318976
 C         3.108463         1.291569        -0.498253
 O         1.870096         1.338924         0.310664
 H        -0.323055        -0.745465        -1.244799
 H        -0.105940        -1.184206         0.646882
 H        -0.417585         0.506893         0.074685
 H         1.468207        -1.031223         1.656497
 H         2.348035        -1.928307         0.457473
 H         5.143429         0.518489         0.318749
 H         4.574192        -0.713139        -1.959747
 H         3.506660        -1.808014        -0.909174
 H         2.275237         0.278977        -2.341885
 H         3.388446         2.231335        -0.974761
