19
Iteration:  3053
 C         0.053127        -0.247936        -0.289448
 C         1.595407        -0.058845        -0.025742
 C         2.198894        -0.772943         1.112194
 O         3.605444        -0.407711         1.340385
 C         4.091322         0.166806         0.120165
 C         3.970156        -0.708065        -1.124695
 C         2.581478        -0.094886        -1.304210
 C         2.999289         1.135437        -0.499761
 O         1.824942         1.331137         0.177649
 H        -0.504550         0.691027        -0.251587
 H        -0.118092        -0.687291        -1.325141
 H        -0.373300        -1.025080         0.337451
 H         1.711988        -0.530447         2.077378
 H         2.279838        -1.905289         0.872451
 H         5.108905         0.587986         0.250386
 H         4.714052        -0.381357        -1.934095
 H         4.020414        -1.802404        -1.164666
 H         2.135215        -0.186074        -2.344293
 H         3.227839         2.116759        -0.989781
