19
Iteration:  1312
 C         0.106354        -0.309393        -0.211519
 C         1.541664        -0.078142        -0.119972
 C         2.189776        -0.908647         0.993900
 O         3.530508        -0.520078         1.317182
 C         4.033202         0.192526         0.165607
 C         4.026739        -0.554218        -1.106588
 C         2.590577         0.008699        -1.371678
 C         3.070679         1.233431        -0.485752
 O         1.852371         1.294991         0.242149
 H        -0.091392        -1.252967         0.476031
 H        -0.399049         0.554323         0.250085
 H        -0.301463        -0.558455        -1.270172
 H         1.435075        -0.846624         1.914411
 H         2.123911        -1.920318         0.639833
 H         4.997506         0.518291         0.520050
 H         4.598258        -0.006176        -1.893769
 H         4.175962        -1.604450        -1.142470
 H         2.128132         0.147591        -2.269077
 H         3.463458         2.241567        -0.868736
