19
Iteration:   674charge 0 multiplicity 1
 C         0.109068        -0.403483        -0.433625
 C         1.569049        -0.098701        -0.063712
 C         2.223788        -1.008108         0.988171
 O         3.577997        -0.567587         1.219122
 C         4.089223         0.179138         0.157885
 C         3.903239        -0.511880        -1.259741
 C         2.536302         0.220804        -1.316820
 C         3.029777         1.300785        -0.318084
 O         1.849484         1.277901         0.460937
 H        -0.226803        -1.440902        -0.215410
 H        -0.657446         0.265907         0.188870
 H         0.071710        -0.167031        -1.471845
 H         1.628529        -0.975463         1.815422
 H         2.301993        -2.046798         0.745174
 H         5.127306         0.407350         0.349976
 H         4.704055        -0.079924        -1.942823
 H         3.925389        -1.569432        -1.142780
 H         2.099331         0.524376        -2.192747
 H         3.622631         2.256444        -0.384139
