19
Iteration:   354
 C         0.064101        -0.384679        -0.355268
 C         1.553266        -0.040442        -0.078505
 C         2.257490        -1.029272         0.759263
 O         3.617915        -0.777356         1.141977
 C         4.159446         0.173287         0.155941
 C         3.988328        -0.284310        -1.283015
 C         2.492616         0.262184        -1.260204
 C         3.046236         1.289776        -0.193698
 O         1.752567         1.214184         0.578388
 H        -0.285188        -1.388025         0.071236
 H        -0.539724         0.320070         0.061963
 H        -0.088284        -0.489151        -1.511699
 H         1.647969        -1.065600         1.656031
 H         2.200822        -1.960759         0.258148
 H         5.081705         0.451959         0.793533
 H         4.506794         0.348650        -1.926843
 H         4.255530        -1.335132        -1.550200
 H         1.981232         0.694529        -2.202509
 H         3.536618         2.269122        -0.425849
