19
Iteration:  2019
 C         0.070522        -0.355298        -0.326133
 C         1.613383        -0.118413        -0.076225
 C         2.319883        -0.918755         1.032730
 O         3.495921        -0.225793         1.415415
 C         4.026633         0.187101         0.149963
 C         3.803109        -0.816276        -1.008288
 C         2.625951         0.037214        -1.407871
 C         3.065944         1.208380        -0.623751
 O         1.904017         1.359109         0.268068
 H        -0.477610         0.279064         0.434463
 H        -0.196579        -0.013263        -1.320676
 H        -0.062264        -1.412058        -0.242557
 H         1.681786        -1.012394         1.785433
 H         2.546443        -1.997992         0.675928
 H         5.137732         0.419155         0.410442
 H         4.436417        -0.704181        -1.912541
 H         3.789079        -1.915729        -0.660943
 H         2.013481         0.034163        -2.376513
 H         3.391097         2.200386        -0.935041
