19
Iteration:  1055
 C         0.115509        -0.361864        -0.299052
 C         1.609569        -0.051045        -0.103191
 C         2.244793        -0.954128         0.981355
 O         3.562457        -0.614682         1.243216
 C         4.056042         0.231835         0.130836
 C         3.964409        -0.528792        -1.239126
 C         2.550354         0.126302        -1.313259
 C         3.018931         1.286936        -0.434833
 O         1.810465         1.267407         0.430795
 H        -0.426186         0.327403        -1.020097
 H         0.081079        -1.412668        -0.794270
 H        -0.498591        -0.360350         0.619524
 H         1.617915        -0.797055         1.989790
 H         2.147747        -2.036813         0.735750
 H         5.058257         0.566292         0.467189
 H         4.655714         0.002576        -1.838914
 H         4.133179        -1.614090        -1.177035
 H         2.084424         0.254591        -2.228258
 H         3.427578         2.316428        -0.534487
