19
Iteration:  1923
 C         0.035383        -0.432531        -0.265818
 C         1.592367        -0.044263        -0.103737
 C         2.155952        -0.799544         1.106976
 O         3.544782        -0.376977         1.409035
 C         4.134237         0.132979         0.120512
 C         3.988189        -0.792708        -1.128542
 C         2.570544         0.007465        -1.293370
 C         3.057967         1.253566        -0.567274
 O         1.827947         1.381690         0.145599
 H        -0.473896        -0.369030         0.741702
 H        -0.387156         0.307894        -0.977118
 H         0.117815        -1.347754        -0.793626
 H         1.629052        -0.523473         2.131627
 H         2.150236        -1.883115         1.010976
 H         5.116463         0.572459         0.451212
 H         4.654163        -0.505201        -1.967457
 H         3.949456        -1.794071        -0.938846
 H         2.206587         0.115218        -2.303338
 H         3.618968         2.141924        -0.980963
