19
Iteration:  2288charge 0 multiplicity 1
 C         0.140889        -0.354470        -0.251071
 C         1.549506        -0.087522        -0.071078
 C         2.236374        -0.883781         1.072722
 O         3.497267        -0.315808         1.394919
 C         4.078343         0.182721         0.142687
 C         3.844545        -0.749145        -1.006975
 C         2.544092        -0.001973        -1.379948
 C         3.119167         1.260342        -0.608090
 O         1.898579         1.361119         0.153711
 H        -0.268089        -0.940488         0.600610
 H        -0.336941         0.591224        -0.520513
 H         0.065802        -1.198080        -1.068233
 H         1.601813        -0.943597         1.947243
 H         2.328109        -1.894116         0.598029
 H         5.060961         0.469179         0.356190
 H         4.696267        -0.762770        -1.766565
 H         3.714312        -1.775434        -0.626208
 H         2.216354        -0.209074        -2.374203
 H         3.395032         2.242540        -1.028397
