19
Iteration:  2513charge 0 multiplicity 1
 C         0.025829        -0.448110        -0.259027
 C         1.538603        -0.042773        -0.122260
 C         2.317107        -0.935846         0.925392
 O         3.507641        -0.296484         1.398450
 C         4.093686         0.128046         0.214527
 C         3.822598        -0.777831        -1.101997
 C         2.556128         0.040580        -1.372041
 C         3.071182         1.251332        -0.518822
 O         1.950723         1.429776         0.249774
 H        -0.497987         0.474294        -0.549704
 H         0.031403        -1.231104        -1.008959
 H        -0.158795        -0.853519         0.796397
 H         1.584488        -0.900955         1.808943
 H         2.450860        -1.958538         0.655291
 H         5.199791         0.462371         0.538272
 H         4.443533        -0.696187        -1.947257
 H         3.919373        -1.829553        -0.771229
 H         2.066770         0.338868        -2.388787
 H         3.487824         2.173775        -1.017350
