19
Iteration:    15charge 0 multiplicity 1
 C        -0.021199        -0.315017        -0.385975
 C         1.494865        -0.100702        -0.043540
 C         2.319475        -1.205414         0.662825
 O         3.566151        -0.584770         1.214653
 C         4.197220         0.201696         0.099723
 C         3.953598        -0.277562        -1.310533
 C         2.524275         0.336293        -1.322680
 C         3.034221         1.361200        -0.171768
 O         1.842661         1.088872         0.720705
 H        -0.576803        -0.318884         0.491119
 H        -0.295540         0.282593        -1.051381
 H        -0.200513        -1.346130        -0.923472
 H         1.858901        -1.884409         1.434443
 H         2.521469        -1.856114        -0.050686
 H         5.213599         0.434563         0.472041
 H         4.630426         0.111031        -2.061040
 H         3.964719        -1.498430        -1.433235
 H         1.966427         0.289026        -2.328376
 H         3.309750         2.398279        -0.158865
