19
Iteration:  1823
 C         0.089533        -0.402127        -0.217995
 C         1.610267        -0.042906        -0.026108
 C         2.116061        -0.780187         1.155464
 O         3.495141        -0.487981         1.257792
 C         4.043057         0.217755         0.148244
 C         4.045651        -0.742333        -1.140908
 C         2.623958         0.018277        -1.341074
 C         3.088313         1.199218        -0.495618
 O         1.822922         1.375066         0.093629
 H        -0.393676         0.053836         0.690424
 H        -0.271336        -0.108334        -1.172131
 H        -0.049878        -1.505568        -0.061964
 H         1.463006        -0.248239         2.005068
 H         2.081829        -1.809466         1.254078
 H         5.076683         0.560902         0.582876
 H         4.749616        -0.404987        -1.903424
 H         4.236045        -1.787005        -1.005342
 H         2.121576         0.031420        -2.355863
 H         3.456046         2.098596        -0.975080
