19
Iteration:  2118charge 0 multiplicity 1
 C         0.071595        -0.414384        -0.402799
 C         1.537872        -0.011890        -0.075947
 C         2.229755        -0.784392         1.154595
 O         3.575971        -0.343917         1.332821
 C         4.117534         0.208259         0.116114
 C         3.860969        -0.758579        -1.051806
 C         2.551330        -0.080266        -1.313325
 C         3.077905         1.215322        -0.553793
 O         1.879228         1.344308         0.235582
 H        -0.535468        -0.588004         0.531387
 H        -0.349914         0.467199        -0.923588
 H         0.151011        -1.290422        -0.970006
 H         1.637274        -0.569297         2.024113
 H         2.126686        -1.855970         1.026490
 H         5.211170         0.530421         0.412824
 H         4.675901        -0.623051        -1.825052
 H         3.785168        -1.894298        -0.733304
 H         2.244630        -0.139451        -2.408546
 H         3.370958         2.161166        -1.029866
