19
Iteration:  1717
 C         0.093306        -0.363686        -0.233306
 C         1.570405        -0.090583        -0.034335
 C         2.174409        -0.827772         1.140096
 O         3.508570        -0.488883         1.263460
 C         4.122703         0.210926         0.170463
 C         4.051331        -0.737920        -1.070208
 C         2.564587        -0.071432        -1.262290
 C         3.070462         1.250673        -0.588809
 O         1.796273         1.442188         0.095381
 H        -0.485488        -0.135350         0.734848
 H        -0.266043         0.410999        -0.912696
 H         0.032842        -1.375597        -0.582318
 H         1.515720        -0.587308         1.921174
 H         2.155502        -1.988920         1.030181
 H         5.023321         0.586566         0.589307
 H         4.637861        -0.313179        -1.983469
 H         4.121125        -1.837732        -0.955783
 H         2.155059         0.004891        -2.287068
 H         3.428056         2.227383        -1.085285
