19
Iteration:  4309
 C         0.060644        -0.338931        -0.229474
 C         1.564248        -0.019055        -0.045642
 C         2.233112        -0.391716         1.283355
 O         3.542253         0.179364         1.392942
 C         4.100735         0.191528         0.047978
 C         3.857934        -1.139364        -0.625856
 C         2.503175        -0.490151        -1.176976
 C         3.070795         0.863659        -0.910225
 O         1.951267         1.392416        -0.272470
 H        -0.524654        -0.685723         0.731485
 H        -0.382932         0.573504        -0.851181
 H        -0.051760        -1.181634        -0.976791
 H         1.678712         0.131097         2.062111
 H         2.285995        -1.492495         1.343113
 H         5.159921         0.556612         0.302159
 H         4.664529        -1.372197        -1.324729
 H         3.930877        -1.964854         0.034955
 H         2.072523        -0.726188        -2.133931
 H         3.547005         1.608926        -1.574566
