19
Iteration:   896charge 0 multiplicity 1
 C         0.109918        -0.292124        -0.479707
 C         1.581385        -0.128937        -0.061283
 C         2.307193        -1.015338         0.952555
 O         3.550443        -0.351144         1.323742
 C         4.106544         0.212828         0.100623
 C         3.814668        -0.595653        -1.165628
 C         2.482105         0.125170        -1.314255
 C         3.017690         1.207229        -0.387936
 O         1.921532         1.216660         0.504250
 H        -0.185840         0.726083        -0.797420
 H         0.035459        -1.026654        -1.353838
 H        -0.590192        -0.784353         0.289234
 H         1.672819        -1.062529         1.810667
 H         2.505426        -1.958704         0.298528
 H         5.107480         0.561467         0.452121
 H         4.667851        -0.341585        -2.001938
 H         3.824870        -1.749368        -1.084785
 H         2.035673         0.079593        -2.201365
 H         3.304762         2.237678        -0.702432
