19
Iteration:  3325
 C         0.069305        -0.427402        -0.101067
 C         1.574410        -0.082976        -0.106519
 C         2.171958        -0.663116         1.095057
 O         3.443646        -0.244407         1.348045
 C         4.151261         0.122886         0.104622
 C         3.987070        -0.849559        -1.059959
 C         2.618445        -0.084000        -1.338625
 C         3.089153         1.150049        -0.613970
 O         1.904047         1.392748         0.087713
 H        -0.208223        -0.839234        -1.067171
 H        -0.273312        -1.109201         0.725698
 H        -0.504433         0.526940         0.015554
 H         1.519757        -0.364353         1.942329
 H         1.908232        -1.751484         1.129350
 H         5.194443         0.195715         0.437833
 H         4.524204        -0.467995        -1.943294
 H         3.976898        -1.903822        -0.858595
 H         1.972982        -0.064582        -2.289264
 H         3.355646         2.108618        -1.151524
