19
Iteration:  4931
 C         0.133673        -0.337586        -0.154605
 C         1.561907         0.015218        -0.058098
 C         2.097515         0.188184         1.379770
 O         3.506066         0.529281         1.314010
 C         4.039193         0.161841         0.037944
 C         3.842664        -1.335691        -0.173633
 C         2.590132        -0.877020        -0.998687
 C         3.176177         0.540726        -1.164725
 O         1.985996         1.284734        -0.726292
 H        -0.159313        -0.988927         0.697838
 H        -0.531896         0.538696         0.172393
 H        -0.212361        -0.726740        -1.122380
 H         1.541849         1.022736         1.849790
 H         1.992312        -0.695168         1.987319
 H         5.033157         0.590944         0.127980
 H         4.592389        -1.743098        -0.921979
 H         3.655529        -1.968687         0.706967
 H         2.028724        -1.504631        -1.783563
 H         3.859771         0.893546        -1.898775
