19
Iteration:  2078charge 0 multiplicity 1
 C         0.091574        -0.342521        -0.323446
 C         1.564613        -0.062608         0.011923
 C         2.085389        -0.698750         1.277268
 O         3.576648        -0.496717         1.304823
 C         4.127953         0.177974         0.187010
 C         3.985039        -0.660683        -1.127254
 C         2.629563        -0.057750        -1.376861
 C         3.027205         1.154034        -0.593547
 O         1.825295         1.352167         0.093039
 H        -0.508167        -0.773238         0.479329
 H        -0.498615         0.450311        -0.843206
 H        -0.058625        -1.255244        -0.995040
 H         1.902707        -0.276798         2.272935
 H         2.142764        -1.822881         1.363180
 H         5.066303         0.571697         0.481677
 H         4.589136        -0.314780        -1.989516
 H         4.149248        -1.649521        -0.991775
 H         2.073294        -0.151762        -2.266630
 H         3.537583         2.105090        -0.868830
