19
Iteration:  1824
 C         0.100350        -0.397015        -0.217403
 C         1.611604        -0.045937        -0.020329
 C         2.113890        -0.778311         1.153652
 O         3.494396        -0.488091         1.257999
 C         4.042441         0.208905         0.151736
 C         4.050618        -0.732999        -1.144414
 C         2.622871         0.019876        -1.339294
 C         3.083754         1.191240        -0.499233
 O         1.821165         1.372625         0.092710
 H        -0.402512         0.061086         0.706093
 H        -0.305804        -0.106774        -1.180576
 H        -0.055468        -1.491696        -0.108582
 H         1.446547        -0.239377         2.029337
 H         2.113190        -1.790662         1.266133
 H         5.048773         0.574992         0.564308
 H         4.772486        -0.389865        -1.939665
 H         4.180425        -1.802281        -0.986405
 H         2.156136         0.009951        -2.319620
 H         3.452335         2.119385        -0.993375
