19
Iteration:    76
 C         0.073705        -0.456928        -0.348143
 C         1.535092        -0.100655        -0.102126
 C         2.255440        -1.085033         0.851256
 O         3.651456        -0.834218         1.000660
 C         4.128767         0.157191         0.173431
 C         3.984346        -0.253667        -1.300003
 C         2.567701         0.434279        -1.256996
 C         3.017039         1.328978        -0.181051
 O         1.717398         1.221499         0.605993
 H        -0.486446        -0.425433         0.615848
 H        -0.508528         0.443537        -0.899494
 H         0.029000        -1.444155        -0.747051
 H         1.819570        -0.970121         1.830812
 H         2.214960        -2.178364         0.425672
 H         5.014213         0.536113         0.665524
 H         4.661773         0.362784        -1.919725
 H         4.048533        -1.258719        -1.540577
 H         2.062644         0.796794        -2.116424
 H         3.460377         2.321390        -0.380310
