19
Iteration:  2161charge 0 multiplicity 1
 C         0.155882        -0.315409        -0.211617
 C         1.648566        -0.049918        -0.103492
 C         2.227548        -0.863117         1.005580
 O         3.442767        -0.268726         1.374050
 C         4.062598         0.159584         0.192506
 C         3.878546        -0.783063        -1.050230
 C         2.619555        -0.048744        -1.369418
 C         3.084306         1.219500        -0.586634
 O         1.834475         1.302575         0.201941
 H        -0.397076         0.237033         0.562317
 H        -0.314397        -0.145942        -1.169031
 H         0.085103        -1.349554        -0.126787
 H         1.486431        -0.853249         1.811294
 H         2.338650        -1.845285         0.658381
 H         5.131203         0.503436         0.260640
 H         4.526385        -0.408997        -1.869041
 H         4.053135        -1.921972        -0.980120
 H         1.944596        -0.020475        -2.258580
 H         3.546959         2.130397        -0.948639
