19
Iteration:   998
 C         0.080677        -0.325105        -0.360649
 C         1.569369        -0.116344        -0.126487
 C         2.252864        -1.045135         0.905056
 O         3.546496        -0.442599         1.283186
 C         4.130463         0.219641         0.136132
 C         3.884476        -0.524808        -1.187742
 C         2.553121         0.110602        -1.325183
 C         3.008040         1.253848        -0.405010
 O         1.881412         1.255014         0.500453
 H        -0.230294        -0.048007        -1.494396
 H        -0.364300        -1.328328        -0.160784
 H        -0.463813         0.382250         0.366073
 H         1.687899        -1.249333         1.910961
 H         2.435944        -2.097746         0.416492
 H         5.091761         0.566304         0.457262
 H         4.685123        -0.148532        -1.931324
 H         4.067745        -1.693898        -1.299637
 H         2.036772         0.209946        -2.208115
 H         3.421850         2.222578        -0.545411
