19
Iteration:   901charge 0 multiplicity 1
 C         0.147478        -0.300534        -0.468923
 C         1.583500        -0.134489        -0.013990
 C         2.286372        -1.008952         0.918441
 O         3.552473        -0.375065         1.334365
 C         4.096608         0.212622         0.125007
 C         3.879109        -0.629466        -1.183992
 C         2.461971         0.139871        -1.331504
 C         2.990273         1.218643        -0.439078
 O         1.909719         1.241063         0.529950
 H        -0.233936         0.726895        -0.822614
 H         0.141609        -0.988939        -1.284436
 H        -0.523455        -0.838008         0.200148
 H         1.584123        -0.893246         1.853309
 H         2.433324        -2.002100         0.574926
 H         5.117622         0.494520         0.330539
 H         4.530429        -0.382907        -1.903855
 H         3.889205        -1.710714        -1.266486
 H         2.020300         0.207805        -2.469340
 H         3.266846         2.245139        -0.622334
