19
Iteration:  3948
 C         0.112486        -0.363428        -0.243932
 C         1.570441        -0.041164        -0.073405
 C         2.235165        -0.601793         1.216967
 O         3.550991         0.016662         1.428356
 C         4.061047         0.130151         0.113164
 C         3.788756        -1.052854        -0.917212
 C         2.573303        -0.257690        -1.326643
 C         3.098305         1.097049        -0.797397
 O         1.924957         1.370026         0.038836
 H        -0.009572        -0.673558        -1.301371
 H        -0.144681        -1.201933         0.387458
 H        -0.605738         0.432955        -0.098366
 H         1.616598        -0.179099         2.011883
 H         2.293247        -1.747988         1.233816
 H         5.112566         0.476845         0.196378
 H         4.571155        -1.030957        -1.725595
 H         3.708439        -2.146253        -0.560914
 H         2.004647        -0.298605        -2.266863
 H         3.530247         1.961706        -1.339177
