19
Iteration:  1128charge 0 multiplicity 1
 C         0.170764        -0.366600        -0.439124
 C         1.589586        -0.108626        -0.103687
 C         2.265504        -1.008332         0.968713
 O         3.595046        -0.442282         1.264375
 C         4.091739         0.209334         0.117033
 C         3.821609        -0.675187        -1.183469
 C         2.554575         0.159844        -1.263392
 C         3.025373         1.327845        -0.359582
 O         1.832123         1.287326         0.438148
 H        -0.430487         0.545705        -0.173918
 H        -0.120248        -0.606018        -1.393255
 H        -0.372136        -1.107047         0.158108
 H         1.848892        -1.029659         1.904755
 H         2.411140        -2.086362         0.627051
 H         5.064460         0.595891         0.393417
 H         4.567089        -0.371097        -2.016395
 H         3.763910        -1.814421        -1.007564
 H         1.798298         0.298065        -2.258952
 H         3.371183         2.282395        -0.630608
