19
Iteration:  2553
 C         0.174163        -0.339432        -0.330356
 C         1.597152        -0.087936        -0.093326
 C         2.216743        -0.865543         1.151550
 O         3.546965        -0.499772         1.299070
 C         4.118429         0.233882         0.116115
 C         3.920647        -0.696304        -1.140565
 C         2.510963         0.021633        -1.293348
 C         3.003674         1.238471        -0.527459
 O         1.864733         1.367247         0.287641
 H        -0.162364         0.103183        -1.307069
 H        -0.207352        -1.375958        -0.435873
 H        -0.525436         0.082454         0.293064
 H         1.678531        -0.401970         1.976627
 H         2.078741        -1.991232         1.077227
 H         5.120435         0.511483         0.380148
 H         4.635816        -0.532890        -1.985833
 H         3.900688        -1.844602        -1.110038
 H         2.076573         0.023840        -2.241420
 H         3.282495         2.176357        -0.947050
