19
Iteration:  1116
 C         0.147132        -0.411371        -0.381517
 C         1.638870        -0.065281        -0.050498
 C         2.287815        -0.937051         0.983874
 O         3.599481        -0.555404         1.252511
 C         4.098376         0.195715         0.125888
 C         3.855436        -0.592487        -1.175456
 C         2.513212         0.177128        -1.318636
 C         3.031030         1.250911        -0.351872
 O         1.766406         1.333870         0.404473
 H        -0.412369         0.547762        -0.298068
 H         0.240805        -0.660017        -1.357876
 H        -0.190206        -1.274146         0.212612
 H         1.595522        -0.714303         1.759072
 H         2.170054        -2.004207         0.686392
 H         5.097866         0.519231         0.355182
 H         4.522230        -0.539056        -2.094046
 H         3.788524        -1.683479        -0.966590
 H         2.019120         0.416205        -2.465122
 H         3.415082         2.211510        -0.641586
