19
Iteration:  1575charge 0 multiplicity 1
 C         0.114556        -0.394474        -0.181330
 C         1.620702        -0.060249        -0.105468
 C         2.100190        -0.808793         1.101437
 O         3.497774        -0.479739         1.354958
 C         4.082812         0.226842         0.137156
 C         4.010054        -0.650429        -1.126268
 C         2.619082        -0.052217        -1.353628
 C         3.062953         1.202877        -0.572295
 O         1.857469         1.332484         0.145478
 H        -0.441937         0.519135         0.245431
 H        -0.389714        -0.364154        -1.113556
 H        -0.204501        -1.289636         0.298621
 H         1.529162        -0.349835         1.915897
 H         1.991628        -1.906507         1.182023
 H         5.006437         0.536953         0.625046
 H         4.778586        -0.232908        -1.804998
 H         3.962487        -1.710782        -1.000819
 H         2.163197         0.083490        -2.510578
 H         3.561754         2.189836        -0.970285
