19
Iteration:  4601charge 0 multiplicity 1
 C         0.083237        -0.285167        -0.141739
 C         1.625573        -0.041456        -0.030583
 C         2.084357        -0.096178         1.413819
 O         3.466661         0.347433         1.376488
 C         4.079120         0.135884         0.088512
 C         3.941993        -1.250612        -0.484478
 C         2.586774        -0.678237        -1.110535
 C         3.154292         0.730150        -1.096904
 O         1.930897         1.332352        -0.556954
 H        -0.419366        -0.083874        -1.162932
 H        -0.066431        -1.317156         0.233601
 H        -0.459373         0.381649         0.597106
 H         1.541129         0.663969         2.018119
 H         1.915149        -1.102538         1.848930
 H         5.133354         0.453785         0.260235
 H         4.717998        -1.414802        -1.223208
 H         3.828206        -2.021376         0.245868
 H         2.153122        -1.212623        -2.042101
 H         3.597054         1.311091        -1.900537
