19
Iteration:   363
 C         0.115444        -0.407151        -0.409958
 C         1.527866        -0.060861        -0.088855
 C         2.243911        -1.052694         0.835703
 O         3.639446        -0.726787         1.126051
 C         4.100814         0.176992         0.200774
 C         3.923664        -0.372942        -1.308850
 C         2.525388         0.349299        -1.291401
 C         3.019618         1.283475        -0.157299
 O         1.800128         1.225294         0.607717
 H        -0.151757        -1.421402        -0.129194
 H        -0.471131         0.344414        -0.035293
 H        -0.234379        -0.331925        -1.557806
 H         1.799144        -1.325831         1.718299
 H         2.419619        -1.975891         0.207531
 H         5.070692         0.714116         0.566083
 H         4.615453         0.100144        -2.033298
 H         3.964856        -1.489111        -1.588689
 H         2.056671         0.804110        -2.133474
 H         3.380143         2.287172        -0.427302
