19
Iteration:  4756
 C         0.122396        -0.278722        -0.129971
 C         1.549155        -0.050020        -0.040351
 C         2.157326        -0.021457         1.355955
 O         3.512868         0.499903         1.305165
 C         4.159616         0.212937         0.100001
 C         3.778787        -1.306847        -0.323173
 C         2.546146        -0.767447        -1.067671
 C         3.203284         0.619060        -1.062443
 O         1.917475         1.291135        -0.642227
 H        -0.131336        -1.372550        -0.394341
 H        -0.550725        -0.056812         0.755732
 H        -0.212153         0.225512        -1.053676
 H         1.567614         0.721897         1.966138
 H         2.153536        -1.057905         1.856409
 H         5.210924         0.445693         0.336993
 H         4.546644        -1.777382        -0.930998
 H         3.704488        -1.938417         0.485484
 H         2.141180        -1.168605        -2.061856
 H         3.450642         1.144322        -1.913838
