19
Iteration:  2136charge 0 multiplicity 1
 C         0.070206        -0.415379        -0.325983
 C         1.556509        -0.111983        -0.071030
 C         2.262659        -0.904979         1.037552
 O         3.503294        -0.211333         1.374158
 C         4.122448         0.179968         0.176892
 C         3.837402        -0.866946        -1.039456
 C         2.577549         0.053017        -1.323749
 C         3.079990         1.234703        -0.588710
 O         1.915499         1.395771         0.217079
 H        -0.531305        -0.225874         0.551913
 H        -0.321589         0.162323        -1.144360
 H         0.046027        -1.458011        -0.777998
 H         1.536955        -0.988576         1.975246
 H         2.443813        -1.920513         0.641247
 H         5.070897         0.622286         0.187641
 H         4.555745        -0.815597        -1.810350
 H         3.833984        -1.890759        -0.684518
 H         1.888255         0.165048        -2.153455
 H         3.659864         2.077276        -0.953724
