19
Iteration:  4928charge 0 multiplicity 1
 C         0.125539        -0.340582        -0.165941
 C         1.558591         0.013194        -0.044200
 C         2.116452         0.187936         1.374592
 O         3.502958         0.518527         1.299076
 C         4.064841         0.147529         0.055888
 C         3.847385        -1.335033        -0.141484
 C         2.576170        -0.858545        -1.026690
 C         3.132138         0.540801        -1.149488
 O         1.978342         1.297240        -0.727524
 H        -0.183221        -0.936696         0.690365
 H        -0.476754         0.544646        -0.024771
 H        -0.174109        -0.771565        -1.042449
 H         1.597951         1.037160         1.792501
 H         2.096557        -0.752870         2.044886
 H         5.085015         0.584994         0.039963
 H         4.591164        -1.752967        -0.869432
 H         3.701239        -2.003743         0.788589
 H         2.104079        -1.499482        -1.828867
 H         3.869136         0.945797        -1.932174
