19
Iteration:   599
 C         0.117120        -0.364124        -0.270829
 C         1.602671        -0.073081        -0.114232
 C         2.233929        -1.019988         0.861865
 O         3.540453        -0.695482         1.164512
 C         4.104523         0.196453         0.191547
 C         4.051012        -0.440936        -1.201834
 C         2.525567         0.199041        -1.303212
 C         2.981111         1.308273        -0.257584
 O         1.780908         1.280478         0.407691
 H        -0.330126        -0.216231         0.656573
 H        -0.294415         0.409431        -1.015928
 H        -0.037535        -1.273415        -0.689688
 H         1.558129        -0.858478         1.812723
 H         2.111284        -2.138338         0.538397
 H         5.076769         0.548247         0.518135
 H         4.725029         0.132305        -1.875629
 H         4.193033        -1.463393        -1.358108
 H         1.952061         0.252962        -2.351922
 H         3.474158         2.256314        -0.579840
