19
Iteration:  4084
 C         0.045410        -0.363870        -0.233527
 C         1.589516        -0.066509        -0.009021
 C         2.151736        -0.501415         1.320239
 O         3.532744        -0.008049         1.426219
 C         4.150945         0.190913         0.013212
 C         3.842704        -1.064135        -0.862711
 C         2.564436        -0.366045        -1.286940
 C         3.116490         1.053030        -0.780862
 O         1.919196         1.404288        -0.124343
 H        -0.551343        -0.478745         0.670958
 H        -0.346345         0.448563        -0.917594
 H        -0.081946        -1.233657        -0.908173
 H         1.700812         0.028497         2.198060
 H         2.198876        -1.564564         1.565408
 H         5.212767         0.543264         0.008029
 H         4.560074        -1.019812        -1.679292
 H         3.724312        -2.005665        -0.339634
 H         2.127589        -0.738831        -2.264152
 H         3.654238         1.799712        -1.422594
