19
Iteration:  4687
 C         0.034048        -0.273180        -0.149185
 C         1.556329        -0.017524        -0.010364
 C         2.109575        -0.028826         1.430503
 O         3.434133         0.432912         1.319558
 C         4.150207         0.162284         0.120997
 C         3.902492        -1.282314        -0.410488
 C         2.617837        -0.848977        -1.081095
 C         3.125949         0.755211        -1.119884
 O         1.986466         1.321456        -0.596875
 H        -0.597145        -0.116907         0.836480
 H        -0.466699         0.370549        -0.888506
 H        -0.085750        -1.394435        -0.316938
 H         1.625408         0.711659         2.017871
 H         1.968464        -1.107796         1.821651
 H         5.202745         0.474274         0.039503
 H         4.623329        -1.626171        -1.140210
 H         4.013110        -2.171039         0.257643
 H         2.206122        -1.334541        -2.026094
 H         3.787475         1.237148        -1.885710
