19
Iteration:  3295charge 0 multiplicity 1
 C         0.086368        -0.283720        -0.227916
 C         1.560731        -0.070267        -0.064302
 C         2.250190        -0.819080         1.191224
 O         3.594907        -0.379098         1.348939
 C         4.060642         0.277816         0.069205
 C         3.954062        -0.852654        -0.987972
 C         2.556889        -0.151168        -1.288820
 C         3.019683         1.130369        -0.622277
 O         1.859675         1.456239         0.054369
 H        -0.144910        -1.128149        -0.923020
 H        -0.495398        -0.649375         0.636969
 H        -0.441887         0.723572        -0.638312
 H         1.651442        -0.520200         2.087601
 H         2.069262        -1.874512         0.955492
 H         5.157341         0.637733         0.265923
 H         4.547283        -0.521962        -1.942926
 H         4.080448        -1.834890        -0.534187
 H         2.034010        -0.187268        -2.311590
 H         3.373825         2.036375        -1.207666
