19
Iteration:  2255
 C         0.124342        -0.407290        -0.327534
 C         1.540458        -0.089640        -0.107308
 C         2.216934        -0.762367         1.077266
 O         3.516028        -0.241114         1.372582
 C         4.185923         0.145431         0.107255
 C         3.837954        -0.804245        -1.110962
 C         2.536227         0.016401        -1.317702
 C         3.112820         1.160513        -0.532812
 O         1.864216         1.356372         0.274241
 H        -0.538581        -0.226898         0.554742
 H        -0.412642         0.108299        -1.142166
 H         0.124794        -1.515872        -0.801591
 H         1.536861        -0.754281         1.913023
 H         2.187426        -1.873664         0.802708
 H         5.177696         0.367245         0.401147
 H         4.673140        -0.715030        -1.891934
 H         3.787797        -1.801592        -0.683826
 H         2.188486         0.039294        -2.333737
 H         3.498885         2.121000        -0.947802
