19
Iteration:  4696
 C        -0.043821        -0.290445        -0.118823
 C         1.514819         0.007015        -0.025015
 C         2.059697        -0.033103         1.388449
 O         3.452170         0.440782         1.339353
 C         4.155836         0.190494         0.086826
 C         3.976579        -1.349685        -0.473937
 C         2.642543        -0.793058        -1.014128
 C         3.223206         0.680559        -1.136516
 O         1.969249         1.331158        -0.587979
 H        -0.408052        -0.279257         0.890101
 H        -0.444737         0.464764        -0.752094
 H        -0.241285        -1.259174        -0.635081
 H         1.595557         0.622791         2.081662
 H         2.060859        -1.007521         1.837823
 H         5.095113         0.649962         0.371646
 H         4.664061        -1.560035        -1.300349
 H         3.845165        -2.124671         0.381203
 H         2.053628        -1.368031        -1.698145
 H         3.657404         1.279132        -2.039163
