19
Iteration:  1371
 C         0.156285        -0.400022        -0.469207
 C         1.592649        -0.093876        -0.085767
 C         2.248089        -0.856770         1.008857
 O         3.577479        -0.423022         1.349833
 C         4.096336         0.186252         0.124101
 C         3.840075        -0.724651        -1.080718
 C         2.535041         0.028993        -1.278497
 C         3.021890         1.291669        -0.537155
 O         1.860504         1.387080         0.398371
 H         0.249595        -1.206972        -1.281507
 H        -0.436547        -0.830478         0.389580
 H        -0.248667         0.529362        -0.808716
 H         1.815699        -0.651564         2.001623
 H         2.378204        -1.969511         0.933831
 H         5.147219         0.494415         0.341264
 H         4.411922        -0.766381        -1.999807
 H         3.609726        -1.819232        -0.864858
 H         1.849503         0.114667        -2.239151
 H         3.296819         2.195244        -0.940816
