19
Iteration:  2108
 C         0.168975        -0.376073        -0.396908
 C         1.549125        -0.115609        -0.092893
 C         2.157991        -0.726961         1.178285
 O         3.582066        -0.391501         1.285660
 C         4.150096         0.167914         0.156101
 C         3.898775        -0.745992        -1.050865
 C         2.552619        -0.077093        -1.294856
 C         2.998738         1.189414        -0.555155
 O         1.840868         1.397123         0.234773
 H        -0.383569        -0.615371         0.571235
 H        -0.359312         0.481449        -0.900033
 H         0.051775        -1.137145        -1.127028
 H         1.720009        -0.273148         2.002927
 H         2.103320        -1.864613         1.179030
 H         5.201523         0.645423         0.288371
 H         4.556220        -0.509597        -1.973687
 H         4.109727        -1.843569        -0.775838
 H         1.963077        -0.132780        -2.263129
 H         3.516936         2.061331        -0.978061
