19
Iteration:  2610charge 0 multiplicity 1
 C         0.136858        -0.354888        -0.267237
 C         1.565396        -0.046381        -0.053654
 C         2.258307        -0.956168         1.055447
 O         3.578154        -0.472391         1.289926
 C         4.061869         0.162915         0.175925
 C         3.935970        -0.646557        -1.097913
 C         2.527123        -0.001662        -1.317642
 C         3.026788         1.248571        -0.483198
 O         1.853161         1.420882         0.178882
 H        -0.112332        -0.568969        -1.298427
 H        -0.356282        -1.099729         0.357233
 H        -0.349493         0.537124         0.047778
 H         1.523091        -0.980236         1.886091
 H         2.061317        -2.016515         0.721422
 H         5.076340         0.649543         0.291531
 H         4.667831        -0.379948        -1.859507
 H         3.919457        -1.786786        -0.989868
 H         2.018468         0.087726        -2.289634
 H         3.469397         2.201446        -0.833885
