19
Iteration:  4181
 C         0.083820        -0.349374        -0.234165
 C         1.589117        -0.058884        -0.009846
 C         2.189744        -0.464815         1.312272
 O         3.473779         0.159759         1.318263
 C         4.081585         0.171595         0.052642
 C         3.815270        -1.120041        -0.775372
 C         2.594353        -0.380085        -1.264953
 C         3.162474         0.899770        -0.827077
 O         1.928912         1.393445        -0.139943
 H        -0.052237        -0.951082        -1.106904
 H        -0.352200        -0.932231         0.601362
 H        -0.459599         0.524895        -0.251136
 H         1.750950        -0.002666         2.224272
 H         2.277559        -1.532843         1.587894
 H         5.163720         0.521634         0.305023
 H         4.605231        -1.230149        -1.620471
 H         3.728993        -2.175460        -0.216794
 H         2.164002        -0.504315        -2.262928
 H         3.497465         1.759639        -1.497572
