19
Iteration:  2589charge 0 multiplicity 1
 C         0.011079        -0.271241        -0.367170
 C         1.574676        -0.101016        -0.000134
 C         2.197793        -0.804245         1.165121
 O         3.537145        -0.510536         1.244916
 C         4.239947         0.204720         0.091007
 C         4.014257        -0.637381        -1.193490
 C         2.560090        -0.067414        -1.277184
 C         3.061831         1.198696        -0.496438
 O         1.790954         1.288730         0.291215
 H        -0.041433        -0.437698        -1.417769
 H        -0.222653        -1.197820         0.112885
 H        -0.612425         0.548455        -0.006387
 H         1.504601        -0.461128         1.985246
 H         2.002687        -1.853506         1.167699
 H         5.127248         0.800782         0.523621
 H         4.530655        -0.101366        -1.941367
 H         4.188776        -1.722978        -1.245521
 H         1.985009         0.194985        -2.207032
 H         3.337758         2.191395        -0.934643
