19
Iteration:  3124
 C         0.123856        -0.343010        -0.326015
 C         1.565280        -0.076731        -0.052342
 C         2.306523        -0.863224         1.060867
 O         3.602565        -0.300466         1.340958
 C         4.084947         0.148083         0.083828
 C         3.744544        -0.815359        -1.027177
 C         2.574849         0.006258        -1.243657
 C         3.045104         1.219561        -0.536839
 O         1.841080         1.379606         0.166481
 H        -0.522071         0.514383         0.005974
 H        -0.111049        -0.325887        -1.386391
 H        -0.229827        -1.335907         0.039570
 H         1.893957        -0.841464         2.066809
 H         2.382791        -1.850888         0.649755
 H         5.139520         0.443279         0.333921
 H         4.484023        -0.734786        -1.835846
 H         3.773599        -1.914290        -0.675519
 H         2.151081         0.082109        -2.218955
 H         3.560925         2.085383        -0.927474
