19
Iteration:  4120charge 0 multiplicity 1
 C         0.121809        -0.305281        -0.138465
 C         1.564674        -0.048315        -0.021992
 C         2.116168        -0.462865         1.330066
 O         3.505394        -0.040230         1.378761
 C         4.157428         0.176830         0.080887
 C         3.924550        -1.035685        -0.867026
 C         2.589639        -0.445410        -1.230039
 C         3.099783         1.033027        -0.863366
 O         1.876406         1.410962        -0.194107
 H        -0.294173        -1.186824         0.427223
 H        -0.397117         0.628898         0.236976
 H        -0.135701        -0.491183        -1.311521
 H         1.366079         0.031692         2.007689
 H         1.871095        -1.592723         1.350544
 H         5.114196         0.508528         0.338710
 H         4.661739        -0.990188        -1.734485
 H         4.185048        -2.028912        -0.487366
 H         2.085620        -0.887165        -2.146105
 H         3.511265         1.830078        -1.455130
