19
Iteration:  1518charge 0 multiplicity 1
 C         0.153126        -0.394757        -0.445244
 C         1.604864        -0.024347        -0.099057
 C         2.297912        -0.892420         1.108216
 O         3.518430        -0.286220         1.294884
 C         4.088978         0.202976         0.111227
 C         3.795937        -0.804627        -1.029008
 C         2.499393         0.001317        -1.299330
 C         2.995753         1.254017        -0.527235
 O         1.920607         1.304946         0.316412
 H        -0.156893         0.476356        -1.010705
 H         0.224130        -1.302710        -0.974565
 H        -0.461339        -0.305080         0.461976
 H         1.786121        -0.802770         1.992785
 H         2.371430        -2.001919         0.835071
 H         5.132557         0.437802         0.470614
 H         4.636155        -0.681403        -1.779725
 H         3.664616        -1.859012        -0.853956
 H         2.006600         0.073287        -2.432503
 H         3.501628         2.252950        -0.648252
