19
Iteration:   798
 C         0.139550        -0.363922        -0.408822
 C         1.597487        -0.088611        -0.125975
 C         2.230889        -0.993485         0.947557
 O         3.627075        -0.558036         1.262101
 C         4.065453         0.173951         0.173126
 C         3.897883        -0.543552        -1.184660
 C         2.536608         0.165282        -1.292039
 C         3.036961         1.271746        -0.314908
 O         1.797431         1.313187         0.413715
 H        -0.014613        -0.407675        -1.484186
 H        -0.001623        -1.446533         0.083476
 H        -0.645814         0.375458         0.005722
 H         1.658827        -0.720910         1.910615
 H         2.208519        -2.034807         0.689266
 H         5.151682         0.530250         0.260758
 H         4.518163        -0.118484        -1.987249
 H         3.820796        -1.656942        -1.192702
 H         2.006217         0.380801        -2.304149
 H         3.412838         2.242607        -0.643576
