19
Iteration:  1188charge 0 multiplicity 1
 C         0.080264        -0.350731        -0.173132
 C         1.538925        -0.065811        -0.096157
 C         2.232045        -1.024503         0.954485
 O         3.540038        -0.622189         1.225869
 C         4.133944         0.200989         0.193767
 C         3.994246        -0.533111        -1.156296
 C         2.618899         0.151203        -1.336948
 C         3.005680         1.318997        -0.469915
 O         1.773007         1.326472         0.275547
 H        -0.434623         0.559021         0.115880
 H        -0.048241        -0.455613        -1.359444
 H        -0.225075        -1.241222         0.412836
 H         1.701562        -0.931390         2.007167
 H         2.122110        -2.089982         0.650912
 H         5.143926         0.549291         0.523470
 H         4.796558        -0.235432        -1.815708
 H         4.147899        -1.641970        -0.936330
 H         2.123108         0.158552        -2.201447
 H         3.375333         2.378809        -0.739158
