19
Iteration:  2675
 C         0.122716        -0.344871        -0.382552
 C         1.616068        -0.061322        -0.033920
 C         2.163950        -0.853467         1.114627
 O         3.605882        -0.457981         1.394247
 C         4.109509         0.206548         0.124084
 C         3.899958        -0.648345        -1.192301
 C         2.541408        -0.007617        -1.325549
 C         2.989169         1.183346        -0.555758
 O         1.881291         1.337536         0.280679
 H        -0.100508        -0.572019        -1.440090
 H        -0.356856        -1.192566         0.181271
 H        -0.470895         0.515790        -0.019943
 H         1.732699        -0.635880         2.131166
 H         2.114530        -2.042192         1.086790
 H         5.067612         0.713789         0.480077
 H         4.654075        -0.329670        -1.952731
 H         3.936527        -1.819683        -1.326909
 H         1.997227         0.125329        -2.270020
 H         3.285301         2.159461        -0.973573
