19
Iteration:  1997charge 0 multiplicity 1
 C         0.098530        -0.313007        -0.370022
 C         1.558635        -0.087335        -0.055170
 C         2.211070        -0.845605         1.048216
 O         3.536071        -0.251419         1.353239
 C         4.114603         0.194983         0.120138
 C         3.903358        -0.787472        -1.123901
 C         2.555064        -0.056937        -1.269686
 C         3.105046         1.156076        -0.503202
 O         1.833980         1.306417         0.236101
 H        -0.501318         0.485765         0.158691
 H        -0.104437        -0.166666        -1.427076
 H        -0.058520        -1.343116        -0.061132
 H         1.759501        -0.769848         1.948634
 H         2.343991        -1.990071         0.964062
 H         5.211905         0.535675         0.361819
 H         4.615445        -0.401366        -1.894804
 H         4.069201        -1.908192        -0.883533
 H         1.838582         0.078504        -2.192448
 H         3.310823         2.161692        -0.884336
