19
Iteration:   626
 C         0.050037        -0.368606        -0.409700
 C         1.559562        -0.058662        -0.072566
 C         2.289934        -1.110346         0.868586
 O         3.560225        -0.545889         1.218235
 C         4.106388         0.262202         0.159178
 C         3.923065        -0.570832        -1.161725
 C         2.539011         0.266431        -1.301077
 C         3.052683         1.309286        -0.292779
 O         1.847098         1.246379         0.470523
 H        -0.472789        -0.858528         0.510834
 H        -0.500878         0.537485        -0.438594
 H        -0.020579        -0.972395        -1.445227
 H         1.711460        -1.348834         1.810970
 H         2.413828        -2.074724         0.380902
 H         5.136606         0.619872         0.411191
 H         4.625750        -0.165862        -1.889053
 H         3.694455        -1.738801        -1.197077
 H         2.146308         0.494001        -2.302413
 H         3.464763         2.231499        -0.657015
