19
Iteration:   734charge 0 multiplicity 1
 C         0.059735        -0.345917        -0.295147
 C         1.593570        -0.114802        -0.126830
 C         2.197045        -1.063002         0.920304
 O         3.558569        -0.579252         1.289787
 C         4.078085         0.222829         0.198620
 C         3.978919        -0.499162        -1.222194
 C         2.577364         0.173499        -1.274067
 C         3.042006         1.323918        -0.402034
 O         1.843524         1.266554         0.355282
 H        -0.113399        -0.905854        -1.198051
 H        -0.315416        -0.838524         0.520934
 H        -0.556069         0.578616        -0.305277
 H         1.590539        -0.858290         1.911404
 H         2.326662        -2.150452         0.594127
 H         5.089821         0.421980         0.623157
 H         4.630300        -0.082694        -1.927479
 H         4.094368        -1.590738        -1.411873
 H         2.044883         0.451414        -2.356223
 H         3.418208         2.290225        -0.676810
