19
Iteration:  2532charge 0 multiplicity 1
 C         0.136452        -0.366337        -0.281959
 C         1.582909        -0.035942        -0.037850
 C         2.229884        -0.903020         1.033149
 O         3.563414        -0.360436         1.312845
 C         4.114196         0.139627         0.127292
 C         3.820901        -0.755306        -1.077302
 C         2.569510         0.030676        -1.300560
 C         3.135027         1.218621        -0.502145
 O         1.786857         1.419916         0.228370
 H        -0.474807         0.220734        -1.026625
 H         0.036611        -1.422106        -0.694446
 H        -0.489769        -0.465044         0.551689
 H         1.608126        -1.093184         1.913784
 H         2.381088        -1.775250         0.378083
 H         5.098810         0.610793         0.272060
 H         4.633033        -0.614705        -1.788541
 H         3.850241        -1.904507        -1.078355
 H         2.051614         0.119203        -2.227401
 H         3.596907         2.129597        -0.807925
