19
Iteration:  3246charge 0 multiplicity 1
 C         0.056642        -0.410848        -0.315733
 C         1.573695        -0.133250        -0.070897
 C         2.227466        -0.771626         1.126810
 O         3.524798        -0.152452         1.306845
 C         4.062163         0.153573         0.133332
 C         3.892288        -0.828440        -1.070178
 C         2.506490        -0.060942        -1.391349
 C         3.112977         1.145679        -0.610184
 O         1.987438         1.371750         0.294738
 H        -0.345907        -1.378025         0.081898
 H        -0.662798         0.313675         0.169975
 H        -0.067577        -0.329752        -1.350424
 H         1.591946        -0.384976         1.956656
 H         2.397144        -1.909939         1.069864
 H         5.062400         0.392356         0.356298
 H         4.570236        -0.812889        -1.946172
 H         3.604765        -1.857592        -0.742768
 H         1.815223        -0.003944        -2.225322
 H         3.628217         2.030174        -0.943347
