19
Iteration:  4689
 C         0.012331        -0.278993        -0.145904
 C         1.544325        -0.010351        -0.008217
 C         2.098104        -0.031178         1.425954
 O         3.430950         0.435129         1.321726
 C         4.157763         0.171664         0.120566
 C         3.917765        -1.304775        -0.426115
 C         2.631533        -0.852555        -1.062110
 C         3.148939         0.757153        -1.138061
 O         1.982518         1.327217        -0.593469
 H        -0.589541        -0.168707         0.886429
 H        -0.478130         0.434230        -0.874125
 H        -0.112292        -1.378954        -0.357957
 H         1.618868         0.755859         2.062686
 H         1.980715        -1.138556         1.821427
 H         5.236565         0.519036         0.078461
 H         4.639313        -1.643887        -1.178566
 H         3.990425        -2.127377         0.236295
 H         2.152949        -1.358857        -2.005180
 H         3.780713         1.210497        -1.871019
