19
Iteration:   670
 C         0.115518        -0.381844        -0.430615
 C         1.574421        -0.093388        -0.061383
 C         2.263894        -1.015613         0.974122
 O         3.564369        -0.538527         1.237986
 C         4.051907         0.152311         0.154853
 C         3.895250        -0.528238        -1.281723
 C         2.561744         0.237772        -1.301377
 C         3.032222         1.298073        -0.322202
 O         1.857289         1.257259         0.477741
 H        -0.166509        -1.456860        -0.167142
 H        -0.608927         0.259153         0.025730
 H         0.104513        -0.181075        -1.568127
 H         1.584628        -0.892203         1.894944
 H         2.272984        -2.078478         0.616462
 H         5.068596         0.523171         0.355243
 H         4.715143        -0.168319        -1.918977
 H         3.973394        -1.694149        -1.209612
 H         1.881010         0.549687        -2.170365
 H         3.453065         2.292973        -0.407720
