19
Iteration:   157charge 0 multiplicity 1
 C         0.024118        -0.318917        -0.434465
 C         1.526417        -0.121624        -0.098597
 C         2.359542        -1.160673         0.681346
 O         3.586947        -0.570164         1.168074
 C         4.180430         0.190608         0.108995
 C         3.910665        -0.387905        -1.260861
 C         2.490598         0.391196        -1.281060
 C         3.007458         1.299952        -0.139749
 O         1.807061         1.106141         0.714273
 H        -0.518214        -0.505806         0.515458
 H        -0.336751         0.547817        -0.796148
 H        -0.203323        -1.131654        -1.270588
 H         1.934394        -1.658485         1.640205
 H         2.650250        -2.059242         0.042195
 H         5.258981         0.423160         0.398407
 H         4.621149         0.036873        -1.930499
 H         3.902537        -1.524174        -1.288195
 H         2.218287         0.903137        -2.289124
 H         3.138585         2.359188        -0.356364
