19
Iteration:  3700charge 0 multiplicity 1
 C         0.039313        -0.343549        -0.115907
 C         1.547496        -0.029518        -0.071401
 C         2.207597        -0.694987         1.123216
 O         3.517738        -0.097391         1.373031
 C         4.126934         0.187959         0.161490
 C         3.872562        -0.999546        -0.935306
 C         2.593273        -0.230125        -1.317297
 C         3.138758         1.091149        -0.709712
 O         1.884162         1.400488        -0.048872
 H        -0.231671        -1.265502         0.392160
 H        -0.614927         0.463074         0.234170
 H        -0.134746        -0.379981        -1.166150
 H         1.583773        -0.680654         2.038884
 H         2.300436        -1.697077         0.986106
 H         5.148186         0.703179         0.227365
 H         4.667203        -0.890142        -1.798707
 H         3.903960        -1.966275        -0.398343
 H         2.217236        -0.241536        -2.351206
 H         3.382949         2.027525        -1.305393
