19
Iteration:  2563
 C         0.046066        -0.323000        -0.406685
 C         1.617139        -0.202309        -0.057806
 C         2.140288        -0.788479         1.192612
 O         3.620706        -0.511768         1.258442
 C         4.099582         0.211874         0.112170
 C         3.904365        -0.656888        -1.150215
 C         2.588893        -0.022759        -1.350796
 C         3.040610         1.245418        -0.560403
 O         1.869384         1.369557         0.377199
 H        -0.173504        -0.026522        -1.461894
 H        -0.189003        -1.397060        -0.198822
 H        -0.355154         0.267547         0.355901
 H         1.527569        -0.426417         1.996138
 H         2.017743        -1.936063         1.245658
 H         4.932538         0.747261         0.385576
 H         4.623443        -0.222824        -1.933912
 H         4.008602        -1.776303        -0.999630
 H         2.016327         0.051497        -2.209805
 H         3.474391         2.110820        -1.020017
