19
Iteration:   325
 C         0.073568        -0.360891        -0.274137
 C         1.616458        -0.178658        -0.076529
 C         2.232307        -1.187291         0.845242
 O         3.531479        -0.796901         1.062833
 C         4.041180         0.259096         0.199114
 C         4.061331        -0.275691        -1.292377
 C         2.608614         0.371798        -1.328190
 C         3.027930         1.361606        -0.267593
 O         1.782140         1.200703         0.535760
 H        -0.357092        -0.967314         0.554634
 H        -0.414085         0.696408         0.129426
 H        -0.119564        -0.554889        -1.246777
 H         1.538918        -1.291793         1.811030
 H         2.116994        -2.207683         0.272476
 H         4.801628         0.581941         0.848244
 H         4.808416         0.330589        -1.953472
 H         4.078875        -1.349972        -1.368272
 H         2.074782         0.717473        -2.269720
 H         3.480726         2.374284        -0.347857
