19
Iteration:  1410charge 0 multiplicity 1
 C         0.047421        -0.355775        -0.361212
 C         1.615727        -0.079747        -0.127140
 C         2.285268        -0.889311         1.066493
 O         3.524623        -0.314029         1.369728
 C         4.144914         0.158207         0.156774
 C         3.882459        -0.731351        -1.169871
 C         2.559345         0.030562        -1.301873
 C         3.040848         1.208586        -0.486827
 O         1.854116         1.309154         0.303138
 H        -0.094242        -0.815449        -1.367863
 H        -0.419150        -1.055953         0.300940
 H        -0.549766         0.624107        -0.213017
 H         1.447276        -0.796354         1.833863
 H         2.324873        -1.911927         0.689634
 H         5.145958         0.513531         0.450757
 H         4.653489        -0.410918        -1.908543
 H         3.885538        -1.775342        -0.990757
 H         2.052564         0.118689        -2.260644
 H         3.547121         2.183511        -0.935869
