19
Iteration:   835charge 0 multiplicity 1
 C         0.089128        -0.414950        -0.210127
 C         1.583819        -0.072237        -0.148372
 C         2.145663        -1.001198         0.960506
 O         3.501699        -0.635579         1.202671
 C         4.126687         0.178159         0.182413
 C         3.986822        -0.476507        -1.190148
 C         2.618642         0.184994        -1.299706
 C         3.070170         1.287980        -0.377247
 O         1.835988         1.332633         0.307409
 H        -0.413258        -0.166306        -1.193106
 H         0.005171        -1.445296        -0.206964
 H        -0.479581        -0.017019         0.610815
 H         1.594616        -0.684257         1.984839
 H         2.007437        -2.115351         0.964949
 H         4.977116         0.676734         0.625062
 H         4.654913         0.068882        -1.788830
 H         4.304560        -1.505730        -1.277727
 H         1.987491         0.289863        -2.405292
 H         3.471207         2.191901        -0.811157
