19
Iteration:  3080charge 0 multiplicity 1
 C         0.041557        -0.405833        -0.158267
 C         1.621575        -0.088665        -0.073268
 C         2.079076        -0.791195         1.159057
 O         3.485934        -0.434390         1.265425
 C         4.052626         0.180391         0.165919
 C         4.020189        -0.705653        -1.126040
 C         2.576234         0.015179        -1.339504
 C         3.146718         1.198719        -0.560769
 O         1.921940         1.359572         0.112942
 H        -0.464389         0.560872         0.073959
 H        -0.406468        -0.830325        -1.027412
 H        -0.047629        -1.226425         0.610758
 H         1.563312        -0.326604         2.015798
 H         2.081042        -1.817672         1.140607
 H         5.142608         0.468676         0.341997
 H         4.707475        -0.153503        -1.762677
 H         3.953759        -1.854240        -1.265647
 H         2.056194         0.092233        -2.260333
 H         3.398162         2.135030        -1.058868
