19
Iteration:    83charge 0 multiplicity 1
 C         0.065734        -0.492988        -0.372129
 C         1.580579        -0.079977        -0.082216
 C         2.224627        -1.043027         0.836061
 O         3.639331        -0.812407         0.964734
 C         4.134221         0.187319         0.202007
 C         3.938974        -0.188026        -1.288494
 C         2.499973         0.385817        -1.245556
 C         3.087700         1.224456        -0.121791
 O         1.740612         1.253165         0.591503
 H        -0.357012        -0.670790         0.656377
 H        -0.404753         0.254573        -1.057946
 H        -0.155883        -1.430936        -0.909276
 H         1.757878        -0.980172         1.841621
 H         2.114693        -2.064763         0.614743
 H         5.182733         0.483378         0.457235
 H         4.656282         0.340165        -2.017434
 H         4.142907        -1.318115        -1.502155
 H         2.009277         0.854991        -2.150269
 H         3.554796         2.231149        -0.288853
