19
Iteration:  2872charge 0 multiplicity 1
 C         0.091838        -0.381915        -0.218304
 C         1.603137        -0.075013        -0.114316
 C         2.227281        -0.942586         0.998411
 O         3.530372        -0.359521         1.313067
 C         4.121676         0.152474         0.127192
 C         3.876908        -0.766522        -0.987297
 C         2.564272         0.074882        -1.392816
 C         3.066136         1.320514        -0.558885
 O         1.848816         1.381849         0.239109
 H        -0.139392        -0.453166        -1.271984
 H        -0.187845        -1.369218         0.237504
 H        -0.657613         0.328387         0.337992
 H         1.809988        -1.142945         1.994108
 H         2.439822        -1.972304         0.544246
 H         5.167434         0.600398         0.309464
 H         4.627356        -0.660721        -1.738416
 H         3.462686        -1.773742        -0.710677
 H         2.084781        -0.002552        -2.344639
 H         3.674028         2.203418        -0.768521
