19
Iteration:  3806charge 0 multiplicity 1
 C         0.160159        -0.364661        -0.139164
 C         1.592603        -0.020569        -0.044609
 C         2.222867        -0.711848         1.099975
 O         3.521008        -0.199652         1.369760
 C         4.053513         0.193831         0.163152
 C         3.859341        -1.021584        -0.875015
 C         2.552108        -0.196726        -1.276892
 C         3.051896         1.101439        -0.748787
 O         1.887928         1.530759        -0.074310
 H        -0.211600        -1.188010         0.539935
 H        -0.398228         0.555153        -0.076638
 H        -0.009617        -0.949660        -1.105075
 H         1.747392        -0.366694         2.006495
 H         2.302314        -1.733740         0.917730
 H         5.069742         0.637063         0.268339
 H         4.645812        -0.925180        -1.590320
 H         3.778712        -2.097483        -0.660529
 H         2.108681        -0.298659        -2.300339
 H         3.476046         2.013113        -1.204266
