19
Iteration:  3348charge 0 multiplicity 1
 C         0.135502        -0.403290        -0.253262
 C         1.590630        -0.033023        -0.091720
 C         2.248602        -0.735919         1.188160
 O         3.538265        -0.203238         1.410476
 C         4.056772         0.177220         0.145999
 C         3.814242        -0.892590        -1.079994
 C         2.576265        -0.072624        -1.361583
 C         3.138131         1.109156        -0.637948
 O         1.875297         1.372663         0.083770
 H        -0.215364        -0.459253        -1.308317
 H        -0.102994        -1.351119         0.265341
 H        -0.504365         0.394703         0.300123
 H         1.602159        -0.574736         2.073384
 H         2.107709        -1.827206         1.144896
 H         5.074207         0.651266         0.298629
 H         4.657494        -0.635175        -1.756155
 H         3.546029        -1.872023        -0.802890
 H         1.914705        -0.220801        -2.311915
 H         3.550023         2.092291        -1.057810
