19
Iteration:  3377charge 0 multiplicity 1
 C         0.099567        -0.309379        -0.392231
 C         1.551069        -0.024830        -0.060516
 C         2.241984        -0.800895         1.171186
 O         3.612809        -0.190994         1.309323
 C         4.167580         0.189303         0.070235
 C         3.837048        -0.923005        -0.899788
 C         2.574198        -0.168494        -1.235106
 C         3.053483         1.148813        -0.677062
 O         1.803978         1.435270         0.152803
 H        -0.230317         0.438344        -1.102284
 H         0.049979        -1.398769        -0.614749
 H        -0.453968        -0.199158         0.488414
 H         1.829613        -0.566805         2.181940
 H         2.176838        -1.906629         0.996386
 H         5.128874         0.571158         0.264551
 H         4.533100        -0.974173        -1.758864
 H         3.781642        -2.048810        -0.600291
 H         1.952977        -0.507890        -2.054935
 H         3.229349         2.048408        -1.244200
