19
Iteration:   287
 C         0.037910        -0.355585        -0.466221
 C         1.557779        -0.109813        -0.078581
 C         2.360039        -1.171052         0.708852
 O         3.555667        -0.631759         1.157222
 C         4.140016         0.180948         0.145521
 C         3.863584        -0.388151        -1.278216
 C         2.532589         0.390440        -1.200871
 C         3.094279         1.347718        -0.165731
 O         1.786723         1.177987         0.666270
 H        -0.611488        -0.675397         0.365499
 H        -0.309730         0.553266        -0.811216
 H        -0.187190        -1.205100        -1.252564
 H         1.893734        -1.464325         1.615161
 H         2.543286        -2.032208         0.103196
 H         5.248946         0.398014         0.369430
 H         4.461965         0.084340        -1.988670
 H         3.975630        -1.474093        -1.475863
 H         2.000132         0.634410        -2.144453
 H         3.433619         2.386932        -0.243244
