19
Iteration:  2681charge 0 multiplicity 1
 C         0.145372        -0.315440        -0.404899
 C         1.592320        -0.127114        -0.037376
 C         2.209614        -0.836212         1.130386
 O         3.624905        -0.517002         1.370244
 C         4.150412         0.225169         0.159644
 C         3.915539        -0.666182        -1.179668
 C         2.527382        -0.007825        -1.301536
 C         2.903014         1.189790        -0.554876
 O         1.871726         1.396583         0.259150
 H        -0.040937        -0.467855        -1.508342
 H        -0.354186        -1.163846         0.121387
 H        -0.462572         0.499081        -0.028400
 H         1.745910        -0.608643         2.073456
 H         1.962876        -1.840967         0.995512
 H         5.129286         0.548579         0.411522
 H         4.541126        -0.198437        -1.962712
 H         4.081779        -1.699210        -1.112881
 H         1.807478        -0.119962        -2.141771
 H         3.288407         2.117192        -0.980234
