19
Iteration:   102charge 0 multiplicity 1
 C         0.150294        -0.496026        -0.423071
 C         1.547631        -0.068196        -0.058771
 C         2.183610        -1.040025         0.879102
 O         3.615351        -0.863298         1.039502
 C         4.143006         0.166177         0.106397
 C         3.906532        -0.248474        -1.367606
 C         2.514774         0.365172        -1.207471
 C         3.021021         1.388675        -0.118406
 O         1.818711         1.262524         0.634803
 H        -0.359336        -0.992070         0.407087
 H        -0.355282         0.218701        -0.902922
 H         0.421013        -1.386403        -1.190289
 H         1.691642        -0.907403         1.917631
 H         2.025985        -2.103977         0.574782
 H         5.097356         0.482248         0.590529
 H         4.400813         0.381755        -2.070378
 H         4.132049        -1.296724        -1.763462
 H         1.986170         0.684798        -2.164528
 H         3.375270         2.399230        -0.225903
