19
Iteration:    53charge 0 multiplicity 1
 C         0.185539        -0.316054        -0.307792
 C         1.674363        -0.149914        -0.086365
 C         2.244745        -1.241841         0.731223
 O         3.609049        -0.770090         1.134484
 C         4.088578         0.255053         0.169538
 C         3.902985        -0.252571        -1.290110
 C         2.529926         0.354097        -1.353720
 C         2.930153         1.395568        -0.173305
 O         1.760220         1.143146         0.604868
 H        -0.371000         0.038653         0.636411
 H        -0.248957         0.658094        -0.978496
 H        -0.085118        -1.296366        -0.529299
 H         1.684412        -1.399558         1.634066
 H         2.452090        -2.194594         0.052706
 H         5.100886         0.532802         0.474045
 H         4.657042         0.167033        -2.013826
 H         3.954082        -1.298561        -1.289960
 H         1.970858         0.488309        -2.260296
 H         3.264324         2.473401        -0.146980
