19
Iteration:  3069charge 0 multiplicity 1
 C         0.097310        -0.366334        -0.185495
 C         1.565685        -0.132791        -0.130340
 C         2.128622        -0.803267         1.168365
 O         3.508295        -0.417471         1.341448
 C         4.155734         0.181735         0.157731
 C         3.997140        -0.680448        -1.207681
 C         2.558721        -0.055596        -1.339968
 C         3.114209         1.174337        -0.602164
 O         1.824149         1.386091         0.175855
 H        -0.365283         0.620971         0.041034
 H        -0.274220        -0.651595        -1.142454
 H        -0.393199        -0.954047         0.630298
 H         1.608060        -0.368820         2.041298
 H         1.882343        -1.813264         1.195462
 H         5.110554         0.473222         0.687999
 H         4.609441        -0.306253        -2.023890
 H         4.326178        -1.793919        -1.166780
 H         2.033899         0.143273        -2.241399
 H         3.696953         2.025505        -0.955944
