19
Iteration:   712
 C         0.140377        -0.396957        -0.235341
 C         1.571321        -0.074063        -0.051672
 C         2.182765        -0.978892         0.966074
 O         3.549508        -0.694973         1.154958
 C         4.047396         0.204026         0.168687
 C         4.068215        -0.464358        -1.161063
 C         2.612878         0.179954        -1.393060
 C         3.023920         1.253280        -0.333962
 O         1.745331         1.367077         0.351633
 H         0.014748        -1.253401        -0.863745
 H        -0.353448        -0.455481         0.646496
 H        -0.334096         0.494638        -0.702967
 H         1.717464        -0.871909         2.070466
 H         2.011698        -2.000113         0.441546
 H         4.999059         0.500012         0.681994
 H         4.705776        -0.164783        -1.917060
 H         4.140989        -1.564028        -1.248855
 H         2.144484         0.341743        -2.529344
 H         3.434015         2.224865        -0.525140
