19
Iteration:   585charge 0 multiplicity 1
 C         0.138194        -0.357215        -0.306459
 C         1.586194        -0.132106        -0.100688
 C         2.144692        -1.060748         0.990388
 O         3.568651        -0.715162         1.138980
 C         4.053431         0.210117         0.209181
 C         3.953972        -0.358432        -1.240238
 C         2.625548         0.229132        -1.324646
 C         3.080326         1.276176        -0.351742
 O         1.784756         1.267166         0.403093
 H        -0.392845         0.180830         0.549545
 H        -0.312047         0.139605        -1.200574
 H        -0.115017        -1.425903        -0.209086
 H         1.720382        -1.006411         1.941920
 H         2.096673        -2.130542         0.656315
 H         4.979345         0.525631         0.658905
 H         4.557757         0.373612        -1.848154
 H         4.215370        -1.406266        -1.385065
 H         2.205261         0.571044        -2.194871
 H         3.364906         2.336194        -0.479374
