19
Iteration:  3157charge 0 multiplicity 1
 C         0.095979        -0.250469        -0.339771
 C         1.621712        -0.138082        -0.085147
 C         2.192877        -0.784720         1.132529
 O         3.522724        -0.249067         1.322321
 C         4.047701         0.203018         0.087035
 C         3.927334        -0.788280        -1.140226
 C         2.555522        -0.099986        -1.260524
 C         2.979002         1.119756        -0.603585
 O         1.946825         1.295410         0.315448
 H        -0.354022         0.080152         0.647108
 H        -0.162090         0.313910        -1.231695
 H        -0.095083        -1.311167        -0.526041
 H         1.663145        -0.570245         2.078216
 H         2.193337        -1.887045         1.049451
 H         5.093541         0.492205         0.132822
 H         4.441527        -0.397251        -2.020668
 H         4.019142        -1.905068        -0.866539
 H         2.208751        -0.002905        -2.245526
 H         3.401120         2.000824        -1.027965
