19
Iteration:  3353
 C         0.111804        -0.400628        -0.273256
 C         1.615221        -0.040902        -0.059092
 C         2.282788        -0.717560         1.153245
 O         3.543203        -0.220428         1.438150
 C         4.067826         0.188718         0.136974
 C         3.804919        -0.868560        -1.019299
 C         2.558530        -0.071113        -1.371162
 C         3.079637         1.126889        -0.650780
 O         1.888616         1.364315         0.072626
 H        -0.098621        -0.251687        -1.358028
 H        -0.120656        -1.391876         0.135524
 H        -0.501871         0.315940         0.251368
 H         1.705633        -0.470595         2.059703
 H         2.218069        -1.824416         1.003608
 H         5.116519         0.436892         0.352166
 H         4.567552        -0.876658        -1.841699
 H         3.616328        -1.998037        -0.846158
 H         1.887491        -0.169252        -2.163689
 H         3.419106         2.023738        -1.093044
