19
Iteration:  4763
 C         0.039187        -0.340453        -0.148295
 C         1.583405        -0.028293        -0.073737
 C         2.190624        -0.004340         1.353046
 O         3.491747         0.514863         1.268314
 C         4.155586         0.165301         0.137822
 C         3.788752        -1.284040        -0.327159
 C         2.507073        -0.797059        -1.040193
 C         3.214111         0.681203        -1.039803
 O         1.956274         1.306944        -0.609606
 H        -0.038691        -1.400415        -0.547540
 H        -0.510770        -0.169609         0.774272
 H        -0.399686         0.363420        -0.892143
 H         1.588773         0.699175         1.854473
 H         2.186533        -0.967651         1.816391
 H         5.243867         0.445131         0.065143
 H         4.506463        -1.708864        -1.066816
 H         3.602830        -2.060562         0.555744
 H         2.137281        -1.512072        -1.827798
 H         3.736094         1.169727        -1.968100
