19
Iteration:  1050
 C         0.130951        -0.343282        -0.313783
 C         1.583277        -0.108409        -0.094383
 C         2.260352        -0.983387         0.959061
 O         3.567202        -0.596515         1.261107
 C         4.058737         0.246992         0.121380
 C         3.936033        -0.528085        -1.220265
 C         2.556959         0.106418        -1.315159
 C         3.013252         1.324452        -0.412017
 O         1.817989         1.281150         0.440059
 H        -0.284409         0.301616        -1.083452
 H        -0.017403        -1.289290        -0.731369
 H        -0.540743        -0.218346         0.545194
 H         1.728963        -0.884530         1.819075
 H         2.214970        -2.102618         0.770546
 H         5.048313         0.528246         0.448064
 H         4.718880        -0.042265        -1.950055
 H         4.063533        -1.652358        -1.133689
 H         1.960669         0.195344        -2.335765
 H         3.432456         2.315645        -0.585453
