19
Iteration:  2509charge 0 multiplicity 1
 C         0.060672        -0.421014        -0.226494
 C         1.573895        -0.085393        -0.115096
 C         2.259604        -0.912387         0.958166
 O         3.496418        -0.286415         1.379555
 C         4.118938         0.123004         0.222126
 C         3.794447        -0.724518        -1.092301
 C         2.553145         0.041722        -1.401953
 C         3.090631         1.253388        -0.550672
 O         1.963021         1.380918         0.256579
 H        -0.658065         0.435924        -0.458590
 H        -0.031861        -1.204885        -1.057069
 H        -0.260685        -0.965620         0.624210
 H         1.521946        -0.830818         1.728896
 H         2.434686        -1.945797         0.551786
 H         5.070680         0.502914         0.497525
 H         4.525945        -0.791915        -1.944948
 H         4.008309        -1.795833        -0.743487
 H         2.106325         0.315952        -2.293560
 H         3.480732         2.167360        -0.930916
