19
Iteration:  2648
 C         0.075685        -0.437816        -0.239255
 C         1.611302        -0.103841        -0.125936
 C         2.214212        -0.897279         0.930397
 O         3.430048        -0.258487         1.286218
 C         4.189423         0.111618         0.083467
 C         3.862313        -0.756782        -1.089029
 C         2.574538         0.085951        -1.325774
 C         3.081491         1.252067        -0.420110
 O         1.910022         1.338870         0.292975
 H        -0.356394        -0.785990        -1.224505
 H        -0.217929        -1.228697         0.509366
 H        -0.432180         0.527263         0.039237
 H         1.754952        -0.752000         1.885762
 H         2.391319        -1.909880         0.746264
 H         5.147919         0.386137         0.475341
 H         4.674111        -0.616232        -1.832758
 H         3.787675        -1.825328        -1.028644
 H         2.075614         0.270626        -2.316060
 H         3.389380         2.294395        -0.614450
