19
Iteration:  4787charge 0 multiplicity 1
 C         0.084586        -0.412691        -0.167135
 C         1.539381         0.048365        -0.029107
 C         2.075202         0.065949         1.396822
 O         3.494426         0.541999         1.318188
 C         4.121806         0.204564         0.092781
 C         3.825327        -1.389198        -0.344996
 C         2.514069        -0.770385        -1.027110
 C         3.174822         0.573673        -1.144789
 O         2.072256         1.356908        -0.578812
 H         0.050550        -1.149639        -1.086147
 H        -0.312654        -0.897466         0.782516
 H        -0.608049         0.447180        -0.329736
 H         1.473147         0.701683         2.017034
 H         2.103833        -0.963968         1.742711
 H         5.217843         0.378154         0.133650
 H         4.580822        -1.670871        -1.109765
 H         3.824163        -2.130750         0.494959
 H         2.102859        -1.223882        -2.010523
 H         3.447110         1.002454        -2.136111
