19
Iteration:  3699
 C         0.042084        -0.342017        -0.109834
 C         1.545517        -0.025264        -0.076059
 C         2.205973        -0.684330         1.126412
 O         3.521317        -0.096816         1.373123
 C         4.115681         0.190081         0.160949
 C         3.875824        -1.000899        -0.938174
 C         2.600608        -0.227180        -1.320545
 C         3.138920         1.083545        -0.710816
 O         1.882165         1.396069        -0.042938
 H        -0.250177        -1.265339         0.396931
 H        -0.606548         0.432305         0.271156
 H        -0.112927        -0.379622        -1.183771
 H         1.559274        -0.683188         2.015077
 H         2.272039        -1.717369         0.966168
 H         5.144570         0.699557         0.218288
 H         4.668733        -0.890971        -1.768219
 H         3.901601        -1.992348        -0.425614
 H         2.257299        -0.244262        -2.371684
 H         3.379207         2.025286        -1.317571
