19
Iteration:  2521
 C         0.052714        -0.458960        -0.268643
 C         1.535806         0.007449        -0.139357
 C         2.324204        -0.937602         0.944460
 O         3.518423        -0.333781         1.398908
 C         4.100046         0.183132         0.155939
 C         3.869080        -0.840208        -1.091174
 C         2.534721         0.064560        -1.310294
 C         3.092997         1.217837        -0.497352
 O         1.878392         1.479499         0.248602
 H        -0.466341         0.449597        -0.706399
 H        -0.017549        -1.343398        -0.966856
 H        -0.319209        -0.600937         0.713757
 H         1.796296        -1.088901         1.890628
 H         2.499297        -1.993694         0.636472
 H         5.161331         0.371192         0.363259
 H         4.553240        -0.517776        -1.866025
 H         3.617672        -1.944012        -1.008773
 H         2.172250         0.115116        -2.304634
 H         3.501136         2.087049        -0.955821
