19
Iteration:   212charge 0 multiplicity 1
 C         0.017242        -0.381458        -0.276997
 C         1.556049        -0.085493        -0.098460
 C         2.267059        -1.158832         0.764364
 O         3.650724        -0.844645         1.063761
 C         4.070578         0.167325         0.236333
 C         4.083796        -0.235652        -1.337641
 C         2.587957         0.371047        -1.304685
 C         2.996295         1.327135        -0.138065
 O         1.708190         1.255379         0.533692
 H        -0.609743        -0.060741         0.575674
 H        -0.373229         0.161603        -1.032391
 H        -0.237317        -1.497788        -0.489096
 H         1.777234        -1.104255         1.817628
 H         2.182241        -2.195201         0.296556
 H         5.050004         0.603299         0.627403
 H         4.828551         0.325318        -1.827998
 H         4.232297        -1.324175        -1.545591
 H         2.110382         0.751786        -2.299207
 H         3.312242         2.391110        -0.143735
