19
Iteration:   559
 C         0.085286        -0.382292        -0.380824
 C         1.545977        -0.074676        -0.106526
 C         2.212460        -1.005447         0.889304
 O         3.595885        -0.661832         1.174339
 C         4.133744         0.199995         0.134362
 C         3.980182        -0.463587        -1.255377
 C         2.568607         0.232452        -1.311747
 C         3.061077         1.287956        -0.305555
 O         1.766329         1.254525         0.558862
 H        -0.556127         0.513604        -0.149930
 H        -0.106737        -0.445064        -1.440065
 H        -0.351061        -1.324499         0.203948
 H         1.705350        -0.998411         1.836661
 H         2.201209        -2.014133         0.584833
 H         5.127566         0.481830         0.572017
 H         4.673784         0.155178        -1.831035
 H         4.087057        -1.619747        -1.387083
 H         2.075611         0.592098        -2.195543
 H         3.264064         2.320257        -0.210008
