19
Iteration:  3762
 C         0.023918        -0.337686        -0.254898
 C         1.572878        -0.155798        -0.089176
 C         2.117947        -0.577402         1.276903
 O         3.561217        -0.144542         1.314459
 C         4.147361         0.150599         0.066961
 C         3.868374        -0.913033        -0.955375
 C         2.639807        -0.232909        -1.278290
 C         3.099662         1.126582        -0.695764
 O         1.890905         1.356696         0.057337
 H        -0.545272        -0.961196         0.504890
 H        -0.317295         0.669488        -0.119190
 H        -0.202204        -0.845639        -1.264099
 H         1.716347         0.032730         2.087249
 H         2.129246        -1.749575         1.571215
 H         5.156619         0.461811         0.391423
 H         4.455666        -0.751352        -1.768745
 H         4.067675        -1.966406        -0.815331
 H         2.153722        -0.188037        -2.286882
 H         3.477843         1.873352        -1.426562
