19
Iteration:  2052charge 0 multiplicity 1
 C         0.111516        -0.404512        -0.255448
 C         1.575244        -0.060759        -0.113933
 C         2.158481        -0.748686         1.035439
 O         3.506849        -0.410249         1.325299
 C         4.108695         0.221463         0.167903
 C         3.931092        -0.754712        -1.090932
 C         2.626894        -0.065640        -1.266296
 C         3.085013         1.163468        -0.553803
 O         1.827321         1.414075         0.171324
 H        -0.470714        -0.412420         0.726153
 H        -0.408770         0.322940        -0.889838
 H        -0.159843        -1.391396        -0.558017
 H         1.760584        -0.579897         1.932738
 H         2.226992        -1.833173         1.062785
 H         5.158773         0.632494         0.514176
 H         4.536220        -0.496212        -2.021691
 H         4.143863        -1.874372        -0.743447
 H         2.159714         0.013673        -2.319618
 H         3.504624         2.041562        -1.053880
