19
Iteration:  4444charge 0 multiplicity 1
 C         0.066133        -0.280695        -0.219155
 C         1.587888        -0.085500        -0.040465
 C         2.174363        -0.285097         1.419117
 O         3.480567         0.312262         1.396245
 C         4.112147         0.235335         0.080080
 C         3.893236        -1.258156        -0.668883
 C         2.539237        -0.575126        -1.105803
 C         3.132054         0.784120        -0.934677
 O         1.960775         1.374906        -0.416558
 H        -0.587733         0.576666        -0.500908
 H        -0.012722        -1.043898        -1.147520
 H        -0.400333        -0.826643         0.739079
 H         1.585252         0.325074         2.057262
 H         1.955166        -1.330073         1.782776
 H         5.082892         0.716022         0.172849
 H         4.426650        -1.386310        -1.526771
 H         4.008739        -2.162198        -0.051879
 H         2.167126        -0.872197        -2.085849
 H         3.620042         1.300258        -1.820643
