19
Iteration:  4162charge 0 multiplicity 1
 C         0.030135        -0.342426        -0.183707
 C         1.551185        -0.038559        -0.117678
 C         2.202522        -0.473814         1.178110
 O         3.569019         0.090246         1.449876
 C         4.187709         0.149527         0.126299
 C         3.855933        -1.096248        -0.716271
 C         2.530062        -0.452475        -1.235149
 C         3.109042         1.069668        -0.888834
 O         1.885039         1.393107        -0.170195
 H        -0.185829        -1.217758        -0.759214
 H        -0.456524        -0.425010         0.808013
 H        -0.411394         0.604881        -0.639912
 H         1.620748        -0.201005         2.111825
 H         2.295274        -1.538038         1.173983
 H         5.210812         0.417837         0.103710
 H         4.488520        -1.447940        -1.553487
 H         3.985084        -2.092422        -0.320729
 H         2.049999        -0.835627        -2.215265
 H         3.504952         1.921033        -1.473918
