19
Iteration:  3025charge 0 multiplicity 1
 C         0.100156        -0.317068        -0.395117
 C         1.620113        -0.132128        -0.030517
 C         2.283071        -0.942869         1.049136
 O         3.533648        -0.307187         1.341383
 C         4.131409         0.263260         0.033673
 C         3.807933        -0.754632        -1.029471
 C         2.506946        -0.012643        -1.240117
 C         3.046255         1.191399        -0.551678
 O         1.920040         1.400588         0.277179
 H        -0.447334         0.631843        -0.368796
 H         0.036343        -0.665863        -1.397304
 H        -0.587670        -1.001734         0.207328
 H         1.722466        -0.863333         1.986258
 H         2.458786        -1.984235         0.847791
 H         5.187057         0.529140         0.337712
 H         4.359030        -1.126879        -1.854450
 H         3.682191        -1.827940        -0.646392
 H         2.163174        -0.123302        -2.230509
 H         3.184389         2.092595        -1.130910
