19
Iteration:  1736charge 0 multiplicity 1
 C         0.048983        -0.313959        -0.340810
 C         1.504686        -0.078246        -0.084203
 C         2.201560        -0.834220         1.096515
 O         3.598625        -0.316143         1.320218
 C         4.096797         0.215561         0.114585
 C         3.953746        -0.718200        -1.060498
 C         2.599019        -0.077290        -1.344204
 C         3.044712         1.154796        -0.520644
 O         1.873430         1.303668         0.251218
 H        -0.511779         0.248561         0.474291
 H        -0.331389         0.109917        -1.239707
 H        -0.229043        -1.404108        -0.354203
 H         1.490895        -0.664439         2.044586
 H         2.168938        -1.885510         0.824638
 H         5.097344         0.664229         0.430026
 H         4.621432        -0.404561        -1.932780
 H         4.029520        -1.760486        -0.783219
 H         2.135614        -0.195166        -2.244480
 H         3.547991         1.999467        -1.016289
