19
Iteration:  1703charge 0 multiplicity 1
 C         0.161619        -0.383785        -0.198955
 C         1.613110         0.007927        -0.073217
 C         2.080717        -0.785509         1.108032
 O         3.571873        -0.538404         1.332389
 C         4.086856         0.197454         0.185490
 C         3.941295        -0.655592        -1.065231
 C         2.626376        -0.028335        -1.299617
 C         3.037413         1.178617        -0.594546
 O         1.790758         1.408979         0.058806
 H        -0.284486        -0.660992         0.800061
 H        -0.413493         0.337743        -0.735614
 H        -0.047090        -1.324777        -0.805791
 H         1.840890        -0.522174         2.208533
 H         1.824376        -1.835400         0.829877
 H         5.125505         0.620385         0.455190
 H         4.677401        -0.390900        -1.925869
 H         4.179094        -1.695771        -0.866448
 H         2.107127        -0.100837        -2.144361
 H         3.580752         1.964282        -1.149372
