19
Iteration:  4565
 C         0.031175        -0.292713        -0.240338
 C         1.538768        -0.058950        -0.086729
 C         2.138046        -0.212582         1.448991
 O         3.552358         0.335452         1.416429
 C         4.153816         0.149784         0.076781
 C         3.909073        -1.198652        -0.477225
 C         2.588546        -0.678528        -1.070540
 C         3.146060         0.766140        -1.098411
 O         1.893744         1.386754        -0.532656
 H        -0.369550        -1.199886        -0.755889
 H        -0.412314        -0.359992         0.835539
 H        -0.307800         0.779214        -0.604449
 H         1.485940         0.360914         2.024246
 H         2.223693        -1.331046         1.836153
 H         5.126043         0.505132         0.220304
 H         4.572603        -1.605349        -1.161644
 H         4.003279        -1.960375         0.328770
 H         1.891389        -1.027976        -1.843942
 H         3.551143         1.299390        -2.004123
