19
Iteration:  1993charge 0 multiplicity 1
 C         0.083201        -0.294958        -0.364844
 C         1.563051        -0.087229        -0.030895
 C         2.214423        -0.851001         1.072358
 O         3.542601        -0.273668         1.335469
 C         4.111505         0.174799         0.106753
 C         3.935608        -0.775278        -1.109676
 C         2.575389        -0.045853        -1.282171
 C         3.095737         1.163940        -0.522709
 O         1.817310         1.307161         0.232926
 H        -0.486255         0.428060         0.162433
 H        -0.062860        -0.254101        -1.450578
 H        -0.065814        -1.379359        -0.075016
 H         1.571394        -0.585605         2.023883
 H         2.265091        -1.900831         0.899726
 H         5.102421         0.425662         0.334984
 H         4.497544        -0.359680        -1.952423
 H         4.216513        -1.861964        -0.849283
 H         1.897767         0.056865        -2.087181
 H         3.321765         2.172093        -0.851636
