19
Iteration:  2616charge 0 multiplicity 1
 C         0.102663        -0.356812        -0.243537
 C         1.606911        -0.030517        -0.038029
 C         2.288053        -0.955071         1.006839
 O         3.550411        -0.478465         1.321663
 C         4.057255         0.191044         0.146893
 C         3.893703        -0.686897        -1.048796
 C         2.510169         0.020065        -1.391233
 C         3.048797         1.233332        -0.488002
 O         1.864859         1.415700         0.181327
 H        -0.074487        -0.615080        -1.330777
 H        -0.145723        -1.215729         0.452411
 H        -0.511347         0.556664        -0.012539
 H         1.618701        -0.949699         1.883332
 H         2.317048        -2.008471         0.574730
 H         4.948477         0.714891         0.392708
 H         4.732406        -0.388011        -1.736135
 H         3.845838        -1.759594        -0.886684
 H         1.988064         0.173591        -2.342802
 H         3.510243         2.202793        -0.698664
