19
Iteration:  3818charge 0 multiplicity 1
 C         0.081981        -0.374341        -0.196413
 C         1.578276        -0.028274        -0.067444
 C         2.244597        -0.702138         1.182405
 O         3.511668        -0.139523         1.393195
 C         4.152998         0.153554         0.110202
 C         3.827082        -0.916007        -0.912699
 C         2.543293        -0.201995        -1.287637
 C         3.149774         1.169055        -0.757613
 O         1.878684         1.383854        -0.041162
 H        -0.219202        -0.999240         0.674688
 H        -0.539715         0.523330        -0.085279
 H        -0.158660        -0.672161        -1.234106
 H         1.566404        -0.687341         2.027570
 H         2.233834        -1.752091         1.039287
 H         5.206980         0.440612         0.457228
 H         4.494179        -1.026175        -1.683101
 H         3.697639        -1.816091        -0.321928
 H         1.935938        -0.340526        -2.204537
 H         3.567846         1.923398        -1.487391
