19
Iteration:  4780
 C         0.034438        -0.410061        -0.189902
 C         1.526643         0.020001        -0.064046
 C         2.102416         0.057371         1.346438
 O         3.519702         0.571774         1.341761
 C         4.079710         0.146882         0.041298
 C         3.809649        -1.387763        -0.315932
 C         2.566969        -0.772931        -0.982901
 C         3.175320         0.622841        -1.161683
 O         2.093975         1.349902        -0.560273
 H        -0.174311        -1.256161        -0.823649
 H        -0.245699        -0.766188         0.833900
 H        -0.690989         0.330620        -0.551772
 H         1.532253         0.728447         2.094001
 H         2.123627        -1.042911         1.708933
 H         5.116776         0.383927         0.201974
 H         4.537440        -1.617405        -1.089216
 H         3.927171        -2.142031         0.388413
 H         2.004064        -1.252025        -1.774739
 H         3.480528         1.288774        -1.928054
