19
Iteration:  2942
 C         0.124909        -0.356690        -0.297732
 C         1.568950        -0.150088        -0.083122
 C         2.158631        -0.780955         1.137191
 O         3.660425        -0.570414         1.163244
 C         4.084431         0.258857         0.177861
 C         3.977865        -0.676334        -1.075974
 C         2.497740        -0.064634        -1.265990
 C         2.997889         1.162432        -0.509232
 O         1.860306         1.482602         0.214118
 H        -0.122712         0.051261        -1.346182
 H        -0.253010        -1.382016        -0.180018
 H        -0.341675         0.240169         0.449714
 H         1.641989        -0.375774         2.027331
 H         1.984596        -1.808807         1.058960
 H         4.954905         0.719027         0.557287
 H         4.554332        -0.296427        -1.937824
 H         4.001227        -1.684057        -0.736876
 H         1.955950        -0.174799        -2.260902
 H         3.337048         2.089148        -0.996510
