19
Iteration:  3890
 C         0.023038        -0.351274        -0.235608
 C         1.515152        -0.021669        -0.002237
 C         2.252391        -0.569450         1.204987
 O         3.569583        -0.254469         1.374483
 C         4.133912         0.200007         0.105833
 C         3.932586        -0.911380        -0.900377
 C         2.533095        -0.316135        -1.238052
 C         3.113471         1.036523        -0.788748
 O         1.852117         1.505724        -0.081756
 H        -0.077980        -1.405692        -0.438846
 H        -0.592134        -0.202911         0.618904
 H        -0.319933         0.429593        -0.973528
 H         1.808570        -0.506528         2.240008
 H         2.077388        -1.762071         1.170994
 H         5.080577         0.548756         0.326339
 H         4.597871        -0.763315        -1.870580
 H         3.974490        -1.862161        -0.316686
 H         2.004418        -0.390128        -2.204554
 H         3.620429         1.794261        -1.321895
