19
Iteration:  4653
 C         0.107120        -0.356361        -0.216809
 C         1.610568        -0.023504        -0.022307
 C         2.174790        -0.074392         1.397897
 O         3.532005         0.456078         1.398278
 C         4.178801         0.229073         0.098089
 C         3.752315        -1.395498        -0.411689
 C         2.579581        -0.689400        -1.091531
 C         3.141040         0.737707        -1.068119
 O         1.912622         1.353601        -0.605524
 H        -0.512115         0.574967        -0.069284
 H        -0.178542        -0.856106        -1.152533
 H        -0.254444        -1.189593         0.484217
 H         1.566831         0.439484         2.084507
 H         2.071486        -1.155199         1.788045
 H         5.183809         0.602158         0.221835
 H         4.320851        -1.905899        -1.158119
 H         3.409014        -2.058306         0.429695
 H         2.198161        -1.207915        -1.978349
 H         3.521281         1.386495        -1.915149
