19
Iteration:  2523
 C         0.076345        -0.446731        -0.274684
 C         1.546090         0.004516        -0.134696
 C         2.311155        -0.936405         0.960889
 O         3.523716        -0.341155         1.387590
 C         4.098428         0.186470         0.141279
 C         3.867523        -0.837703        -1.087742
 C         2.535879         0.066060        -1.293185
 C         3.104176         1.206130        -0.497645
 O         1.856797         1.479161         0.248108
 H        -0.506090         0.391075        -0.742067
 H        -0.048788        -1.337129        -0.913637
 H        -0.434902        -0.583537         0.719315
 H         1.768386        -1.110519         1.930393
 H         2.502379        -1.932049         0.570329
 H         5.228093         0.416507         0.330189
 H         4.575432        -0.539504        -1.798854
 H         3.619622        -1.917333        -1.077502
 H         2.158944         0.077244        -2.347393
 H         3.535987         2.118876        -0.933572
