19
Iteration:  1229
 C         0.153221        -0.470867        -0.345334
 C         1.581718        -0.069093        -0.030575
 C         2.163396        -0.853846         1.054235
 O         3.558216        -0.542552         1.232936
 C         4.155898         0.114601         0.147728
 C         3.944130        -0.586515        -1.198220
 C         2.512400         0.158335        -1.295545
 C         3.066424         1.337713        -0.400427
 O         1.816648         1.321021         0.334066
 H        -0.574315         0.043809         0.205218
 H        -0.185949        -0.325978        -1.372883
 H         0.009171        -1.508520        -0.178385
 H         1.648670        -0.558723         1.881347
 H         2.092549        -1.953683         0.855658
 H         5.204329         0.245983         0.517531
 H         4.606898        -0.185884        -1.996414
 H         3.870813        -1.707527        -1.416376
 H         1.978408         0.284376        -2.435963
 H         3.390242         2.333484        -0.633964
