19
Iteration:   635
 C         0.082149        -0.347289        -0.409470
 C         1.594051        -0.142062        -0.091462
 C         2.340666        -1.080900         0.806740
 O         3.534012        -0.481484         1.262165
 C         4.068456         0.177795         0.134188
 C         3.847465        -0.547204        -1.158358
 C         2.503918         0.274614        -1.280349
 C         3.070759         1.321188        -0.290930
 O         1.892092         1.244115         0.474747
 H        -0.457144        -1.124104         0.135031
 H        -0.405625         0.563100        -0.442832
 H         0.039090        -0.786012        -1.470935
 H         1.789724        -1.169260         1.876022
 H         2.446765        -2.137631         0.396416
 H         5.080459         0.500629         0.494101
 H         4.572472        -0.328321        -1.916141
 H         3.865637        -1.696538        -1.006199
 H         1.803111         0.429835        -2.245302
 H         3.323793         2.359449        -0.451998
