19
Iteration:  4000charge 0 multiplicity 1
 C         0.116535        -0.257423        -0.196900
 C         1.577105        -0.073742        -0.110979
 C         2.160561        -0.512496         1.318360
 O         3.538980        -0.163538         1.387072
 C         4.066787         0.218077         0.134349
 C         3.927094        -0.910044        -0.907688
 C         2.594158        -0.398098        -1.310024
 C         3.060630         1.035751        -0.803509
 O         1.893661         1.349974        -0.088918
 H        -0.391870         0.544040        -0.682456
 H        -0.322633        -1.119961        -0.738127
 H        -0.117253        -0.193482         0.921365
 H         1.708304        -0.143630         2.272770
 H         2.038835        -1.576135         1.326111
 H         4.933151         0.727244         0.349646
 H         4.629150        -1.038738        -1.793481
 H         4.154317        -1.948622        -0.653267
 H         1.936996        -0.580756        -2.191536
 H         3.440261         1.816904        -1.402621
