19
Iteration:   468
 C         0.013522        -0.305672        -0.334143
 C         1.570693        -0.126202        -0.059209
 C         2.236182        -1.083329         0.883243
 O         3.592813        -0.780846         1.054625
 C         4.090225         0.204883         0.213802
 C         4.065243        -0.324716        -1.219985
 C         2.621485         0.254805        -1.366474
 C         2.933206         1.339372        -0.230746
 O         1.806378         1.238771         0.500091
 H        -0.413167        -0.595810        -1.267778
 H        -0.122838        -1.362773         0.244685
 H        -0.453544         0.502775         0.133632
 H         1.643376        -1.040373         1.942473
 H         2.127727        -2.022344         0.521860
 H         5.018670         0.661996         0.463673
 H         4.786826         0.153249        -1.928088
 H         4.158848        -1.379196        -1.264401
 H         2.007283         0.629366        -2.345964
 H         3.457104         2.290410        -0.338643
