19
Iteration:  1044
 C         0.134555        -0.315058        -0.351361
 C         1.568936        -0.179916        -0.059038
 C         2.258740        -1.060881         0.925635
 O         3.593566        -0.532695         1.253605
 C         4.085438         0.239597         0.133985
 C         3.911723        -0.519527        -1.181188
 C         2.537637         0.113112        -1.351901
 C         2.990693         1.336247        -0.349496
 O         1.838969         1.301758         0.433817
 H        -0.018611         0.411197        -1.223294
 H        -0.181327        -1.400213        -0.661825
 H        -0.473472        -0.025129         0.525866
 H         1.622449        -0.949411         1.949368
 H         2.329054        -2.124249         0.642786
 H         5.098338         0.576642         0.434000
 H         4.527180        -0.308632        -2.017756
 H         3.944017        -1.628838        -1.145195
 H         1.989504         0.135465        -2.263881
 H         3.354303         2.329469        -0.756952
