19
Iteration:  3339
 C         0.145058        -0.406065        -0.191434
 C         1.579827        -0.066742        -0.124265
 C         2.111263        -0.761563         1.219770
 O         3.522817        -0.185582         1.354244
 C         4.068770         0.133994         0.134407
 C         3.855909        -0.887880        -1.121443
 C         2.571684        -0.113874        -1.354947
 C         3.157737         1.168778        -0.614105
 O         1.864680         1.406506         0.102464
 H        -0.327956        -0.778680        -1.143069
 H        -0.008832        -1.267145         0.479426
 H        -0.460661         0.518379         0.250464
 H         1.526297        -0.386981         2.083204
 H         2.326176        -1.819797         1.140970
 H         5.094463         0.672357         0.308356
 H         4.726890        -0.650584        -1.817791
 H         3.913619        -1.973303        -0.858817
 H         2.314103         0.024730        -2.447005
 H         3.772148         2.021979        -1.011330
