19
Iteration:  4472charge 0 multiplicity 1
 C         0.088636        -0.318400        -0.173537
 C         1.634431        -0.060682        -0.077737
 C         2.131952        -0.159219         1.315449
 O         3.513853         0.171758         1.368877
 C         4.093199         0.161217         0.156279
 C         3.876130        -1.164029        -0.547536
 C         2.599007        -0.601667        -1.104983
 C         3.042626         0.823789        -1.030773
 O         1.922164         1.407195        -0.436078
 H        -0.453738         0.348677         0.510027
 H        -0.295085        -0.172427        -1.132606
 H        -0.040000        -1.347993         0.038518
 H         1.699608         0.627946         2.108307
 H         1.944258        -1.260216         1.736695
 H         5.201539         0.445644         0.194878
 H         4.762109        -1.369392        -1.335303
 H         3.924807        -2.129593         0.018270
 H         2.197739        -1.201920        -1.970055
 H         3.454007         1.332408        -1.888843
