19
Iteration:   111charge 0 multiplicity 1
 C         0.188373        -0.476760        -0.452189
 C         1.610301        -0.042505         0.002120
 C         2.208322        -1.091982         0.914591
 O         3.615365        -0.824499         1.033568
 C         4.087034         0.116042         0.143634
 C         3.916208        -0.279354        -1.370669
 C         2.532500         0.449136        -1.247808
 C         2.994600         1.394581        -0.232594
 O         1.773497         1.240915         0.699500
 H        -0.330243        -0.983743         0.338237
 H        -0.433027         0.233234        -0.965964
 H         0.310118        -1.255294        -1.278692
 H         1.728883        -1.025594         1.911731
 H         2.084571        -2.195993         0.568064
 H         5.110618         0.398101         0.407891
 H         4.589784         0.300512        -1.909860
 H         3.918034        -1.308481        -1.686816
 H         1.947921         0.638917        -2.145847
 H         3.366803         2.383556        -0.366353
