19
Iteration:  3855charge 0 multiplicity 1
 C         0.103071        -0.257066        -0.280572
 C         1.663383        -0.108726        -0.045461
 C         2.218002        -0.566433         1.257442
 O         3.511392        -0.126226         1.370806
 C         4.073701         0.165909         0.076868
 C         3.951879        -0.914806        -0.994649
 C         2.506986        -0.285996        -1.300269
 C         3.042825         1.044078        -0.746643
 O         1.852160         1.346342         0.106245
 H        -0.373110        -1.158421         0.039973
 H        -0.352971         0.647849         0.143827
 H        -0.057914        -0.332326        -1.334427
 H         1.704617        -0.062744         2.110358
 H         2.226964        -1.720141         1.185384
 H         5.131364         0.382555         0.269783
 H         4.669453        -0.967408        -1.855702
 H         4.059932        -1.913338        -0.593624
 H         1.984370        -0.529743        -2.210613
 H         3.434270         1.904629        -1.316694
