19
Iteration:  2665charge 0 multiplicity 1
 C         0.091444        -0.375599        -0.309352
 C         1.563593        -0.072593        -0.070210
 C         2.192428        -0.885960         1.148559
 O         3.546270        -0.356074         1.325331
 C         4.046344         0.163858         0.128019
 C         3.908464        -0.678677        -1.201691
 C         2.557979         0.028807        -1.359902
 C         3.137648         1.225014        -0.513547
 O         1.865941         1.283230         0.312411
 H        -0.014799        -0.559780        -1.361824
 H        -0.177137        -1.234048         0.291870
 H        -0.485908         0.547517        -0.131942
 H         1.483535        -0.597182         1.981234
 H         2.285831        -2.026741         0.866569
 H         5.112594         0.588869         0.340652
 H         4.594801        -0.297405        -1.964554
 H         3.897744        -1.821827        -1.073662
 H         2.154780         0.226607        -2.380043
 H         3.541338         2.167974        -0.954820
