19
Iteration:  1902charge 0 multiplicity 1
 C         0.145525        -0.370484        -0.371168
 C         1.677923        -0.087740        -0.069014
 C         2.241951        -0.859334         1.035566
 O         3.511851        -0.221465         1.335110
 C         4.071140         0.213603         0.177957
 C         3.779047        -0.797568        -1.012903
 C         2.524916        -0.026722        -1.358434
 C         3.034056         1.184287        -0.553170
 O         1.918553         1.325848         0.247769
 H        -0.397856        -0.541770         0.612360
 H        -0.484672         0.461135        -0.802515
 H         0.066146        -1.238390        -1.025917
 H         1.588866        -0.764581         2.047634
 H         2.394473        -1.863737         0.876126
 H         5.142388         0.399323         0.357758
 H         4.585273        -0.530785        -1.755192
 H         3.700464        -1.835114        -0.824545
 H         2.076079        -0.097917        -2.309912
 H         3.710949         1.965840        -1.012671
