19
Iteration:   694charge 0 multiplicity 1
 C         0.083024        -0.394065        -0.343941
 C         1.551889        -0.050602        -0.145176
 C         2.190859        -0.975602         0.941780
 O         3.597783        -0.710732         1.168711
 C         4.157940         0.204050         0.212826
 C         3.953080        -0.489941        -1.196469
 C         2.591482         0.183072        -1.242944
 C         3.043388         1.310829        -0.336525
 O         1.782414         1.326330         0.386237
 H         0.034305        -1.556819        -0.377136
 H        -0.499911        -0.189458         0.674028
 H        -0.397213         0.142824        -1.201727
 H         1.683310        -0.728907         1.831358
 H         1.971463        -2.001805         0.676790
 H         5.072125         0.648284         0.523993
 H         4.631459         0.042520        -1.988334
 H         4.153700        -1.620707        -1.179901
 H         2.079252         0.312981        -2.109572
 H         3.293506         2.327992        -0.728231
