19
Iteration:  2631charge 0 multiplicity 1
 C         0.107117        -0.392065        -0.191423
 C         1.548304        -0.011884        -0.167524
 C         2.253583        -0.922039         0.904064
 O         3.536493        -0.368738         1.368446
 C         4.086330         0.227781         0.214074
 C         3.822842        -0.780896        -1.098203
 C         2.617111         0.110716        -1.351285
 C         3.123049         1.260524        -0.553231
 O         1.835958         1.344600         0.306460
 H        -0.164000        -0.814102        -1.178665
 H        -0.171306        -1.214920         0.502467
 H        -0.578171         0.374490         0.077816
 H         1.617922        -1.205644         1.792933
 H         2.379561        -1.992055         0.401714
 H         5.166278         0.422148         0.370937
 H         4.518560        -0.764047        -1.967168
 H         3.771269        -1.892347        -0.771373
 H         2.236748         0.137904        -2.354760
 H         3.526873         2.129331        -1.070969
