19
Iteration:   483
 C         0.032678        -0.396105        -0.323053
 C         1.529162        -0.093040        -0.130450
 C         2.197779        -1.088837         0.866106
 O         3.610661        -0.696739         1.136460
 C         4.147083         0.237071         0.152625
 C         3.980555        -0.372223        -1.283952
 C         2.595575         0.333636        -1.267656
 C         3.076507         1.307263        -0.231376
 O         1.781587         1.198008         0.517872
 H        -0.089766        -0.210620        -1.433934
 H        -0.472927        -1.338703        -0.019165
 H        -0.633285         0.410916         0.286145
 H         1.723773        -1.041699         1.804870
 H         2.111068        -2.218429         0.554324
 H         5.096326         0.405920         0.708159
 H         4.634882         0.194685        -1.995976
 H         4.098242        -1.547840        -1.399646
 H         2.220629         0.524825        -2.169341
 H         3.288599         2.344114        -0.513027
