19
Iteration:  4077charge 0 multiplicity 1
 C         0.137171        -0.342993        -0.250938
 C         1.600447        -0.032098        -0.005241
 C         2.162191        -0.522247         1.315392
 O         3.532753        -0.009978         1.402096
 C         4.146164         0.142767         0.028425
 C         3.817983        -1.048149        -0.832775
 C         2.614039        -0.350300        -1.255910
 C         3.088358         1.062968        -0.841800
 O         1.873236         1.414990        -0.111874
 H        -0.538521        -0.278490         0.643881
 H        -0.280757         0.411028        -0.974889
 H         0.096093        -1.496348        -0.609710
 H         1.672657        -0.098564         2.253644
 H         2.107192        -1.715157         1.400813
 H         5.156285         0.425275         0.146115
 H         4.532042        -1.190331        -1.728102
 H         3.513842        -1.976807        -0.310118
 H         2.069361        -0.641540        -2.182567
 H         3.347651         1.867043        -1.504449
