19
Iteration:   762charge 0 multiplicity 1
 O         0.609808         0.403750         0.791243
 C        -0.764425         0.675923         0.741299
 C        -1.360266         0.710088         2.236699
 C        -2.466061        -0.142450         1.648355
 C        -3.305328         0.738330         0.644494
 C        -2.645104         2.074793         0.212121
 C        -1.111892         1.798349        -0.125198
 O        -2.945968        -0.222608        -0.393970
 C        -1.767752        -0.592822         0.404123
 H         0.999345         0.371342        -0.035536
 H        -0.755274         0.158638         2.968395
 H        -1.655063         1.674553         2.605503
 H        -3.152720        -0.796321         2.252530
 H        -4.447798         0.767129         0.871159
 H        -3.215058         2.464049        -0.780012
 H        -2.887977         2.873004         0.938308
 H        -0.951867         1.529716        -1.252952
 H        -0.585059         2.758609         0.227145
 H        -1.296608        -1.528075         0.154819
