19
Iteration:  3606charge 0 multiplicity 1
 O         0.575481         0.243088         0.628884
 C        -0.655430         0.595834         0.682356
 C        -1.227403         0.685170         2.169910
 C        -2.512525         0.039357         1.682315
 C        -3.387999         0.719073         0.547142
 C        -2.724885         2.059036         0.204818
 C        -1.236042         1.948229         0.114686
 O        -2.851625        -0.254069        -0.433612
 C        -1.789448        -0.548106         0.487064
 H         1.222314         1.018864         0.997973
 H        -0.755790        -0.124608         2.854923
 H        -1.323305         1.637392         2.774475
 H        -3.074278        -0.642835         2.287622
 H        -4.458684         0.592361         0.434869
 H        -3.245750         2.180647        -0.820733
 H        -2.939103         2.697353         1.065706
 H        -0.780221         1.945393        -0.925848
 H        -0.738767         2.806020         0.584522
 H        -1.461800        -1.605048         0.396113
