19
Iteration:   339
 O         0.642654         0.379432         0.710332
 C        -0.772573         0.588246         0.707141
 C        -1.358451         0.781050         2.134930
 C        -2.538474        -0.057845         1.641330
 C        -3.380289         0.689967         0.582929
 C        -2.594836         2.173177         0.376120
 C        -1.243861         1.799576        -0.106281
 O        -2.835362        -0.293825        -0.496106
 C        -1.784485        -0.626175         0.479820
 H         0.994172         0.497842         1.705277
 H        -0.873673         0.179289         2.992210
 H        -1.321169         1.860951         2.486207
 H        -3.069420        -0.661477         2.358245
 H        -4.417453         0.613032         0.656315
 H        -2.988181         2.850586        -0.296251
 H        -2.581782         2.740176         1.379795
 H        -1.450702         1.499859        -1.155661
 H        -0.378509         2.726891        -0.137367
 H        -1.133898        -1.540247         0.221549
