19
Iteration:  4209charge 0 multiplicity 1
 O         0.622309         0.468318         0.694953
 C        -0.795720         0.581790         0.759349
 C        -1.324005         0.612028         2.242130
 C        -2.516746        -0.145721         1.738642
 C        -3.295549         0.759278         0.567615
 C        -2.642455         2.062453         0.207122
 C        -1.139608         1.817133        -0.027435
 O        -2.846340        -0.153784        -0.457143
 C        -1.837228        -0.586097         0.484321
 H         0.872628         0.642188        -0.239823
 H        -0.714241        -0.084193         2.882015
 H        -1.510617         1.507427         2.866919
 H        -3.303102        -0.756988         2.172325
 H        -4.369519         0.650162         0.745203
 H        -3.153406         2.562200        -0.681261
 H        -2.888119         2.755900         1.025378
 H        -0.959229         1.662834        -1.125579
 H        -0.620787         2.734079         0.280203
 H        -1.526711        -1.595728         0.054561
