19
Iteration:  3972charge 0 multiplicity 1
 O         0.722199         0.434070         0.714807
 C        -0.690018         0.658841         0.781756
 C        -1.346184         0.643303         2.210761
 C        -2.638313        -0.044071         1.708574
 C        -3.334038         0.802258         0.591856
 C        -2.652934         2.051304         0.273841
 C        -1.109321         1.876297        -0.007051
 O        -2.916320        -0.292786        -0.462325
 C        -1.828860        -0.622696         0.371914
 H         0.894870         0.093980        -0.205266
 H        -0.744339        -0.033577         2.867397
 H        -1.163945         1.646602         2.781261
 H        -3.171920        -0.826367         2.334393
 H        -4.446583         0.767954         0.675683
 H        -3.071669         2.472043        -0.669391
 H        -3.149359         2.762506         1.012285
 H        -1.015160         1.697317        -1.066354
 H        -0.584886         2.784620         0.339759
 H        -1.618673        -1.687400         0.155051
