19
Iteration:  3437charge 0 multiplicity 1
 O         0.627791         0.223665         0.501337
 C        -0.722460         0.602826         0.820343
 C        -1.262473         0.661498         2.228170
 C        -2.613864         0.064911         1.652630
 C        -3.346885         0.661928         0.509935
 C        -2.738652         2.069942         0.258652
 C        -1.293632         1.868217         0.123764
 O        -2.754436        -0.242697        -0.507429
 C        -1.757555        -0.505673         0.558979
 H         1.306267         1.013656         0.621514
 H        -0.732229        -0.085753         2.833435
 H        -1.224452         1.638958         2.835863
 H        -3.355747        -0.295495         2.423630
 H        -4.413291         0.631985         0.345331
 H        -3.143436         2.512299        -0.635933
 H        -2.808942         2.804911         1.110745
 H        -1.130986         2.141903        -0.912593
 H        -0.678695         2.686774         0.605359
 H        -1.342374        -1.522857         0.470584
