19
Iteration:  3761charge 0 multiplicity 1
 O         0.707655         0.301076         0.669763
 C        -0.723966         0.681190         0.771741
 C        -1.251553         0.695277         2.224859
 C        -2.638911        -0.021124         1.684386
 C        -3.394514         0.695461         0.530205
 C        -2.747542         2.048046         0.260548
 C        -1.252939         1.855553         0.045593
 O        -2.778567        -0.193439        -0.497485
 C        -1.753996        -0.518152         0.482405
 H         0.781070        -0.371277        -0.049906
 H        -0.595504        -0.107479         2.697043
 H        -1.162046         1.589510         2.879380
 H        -3.187079        -0.536095         2.408923
 H        -4.438458         0.526597         0.456238
 H        -3.157887         2.646927        -0.580140
 H        -3.059946         2.739155         1.037197
 H        -1.094831         1.804189        -1.050319
 H        -0.634293         2.682565         0.389309
 H        -1.527135        -1.608553         0.498876
