19
Iteration:   880
 O         0.659191         0.190050         0.594796
 C        -0.746315         0.678747         0.796695
 C        -1.259797         0.712169         2.218252
 C        -2.533518        -0.003331         1.658677
 C        -3.356582         0.696929         0.530609
 C        -2.774347         2.072451         0.151691
 C        -1.171210         1.983323         0.102767
 O        -2.881574        -0.302251        -0.426737
 C        -1.778324        -0.536406         0.488311
 H         1.154741         0.954627         0.784833
 H        -0.737950        -0.114832         2.731157
 H        -1.179502         1.729626         2.702942
 H        -3.066048        -0.820511         2.390230
 H        -4.423416         0.620986         0.601199
 H        -3.165747         2.334667        -0.844255
 H        -3.141837         2.833652         0.797694
 H        -0.776033         1.927034        -0.939529
 H        -0.763327         2.851845         0.684793
 H        -1.280531        -1.459487         0.472919
