19
Iteration:  1531
 O         0.623437         0.185889         0.738920
 C        -0.747269         0.678238         0.772315
 C        -1.255576         0.698303         2.164003
 C        -2.514944        -0.046609         1.600732
 C        -3.344300         0.686574         0.609504
 C        -2.725864         2.120495         0.359573
 C        -1.284191         1.820615        -0.034269
 O        -2.825356        -0.122429        -0.508970
 C        -1.712521        -0.565690         0.371404
 H         1.030411         0.730489         1.350862
 H        -0.788828         0.074322         2.939257
 H        -1.427875         1.917541         2.599368
 H        -2.983829        -0.714126         2.348534
 H        -4.412440         0.622463         0.511530
 H        -3.357894         2.316208        -0.513332
 H        -2.757902         2.897329         1.165820
 H        -1.239603         1.467837        -1.069251
 H        -0.731108         2.861910        -0.049127
 H        -1.457584        -1.579011         0.352066
