19
Iteration:  2228charge 0 multiplicity 1
 O         0.664745         0.397731         0.649808
 C        -0.745150         0.572031         0.769140
 C        -1.387833         0.723707         2.318107
 C        -2.503684        -0.041354         1.683844
 C        -3.330888         0.661822         0.612307
 C        -2.690301         2.087533         0.333282
 C        -1.186985         1.755604        -0.131118
 O        -2.880190        -0.144679        -0.527120
 C        -1.744662        -0.592151         0.474643
 H         1.005751         0.891297        -0.198952
 H        -0.828583         0.052721         2.992447
 H        -1.565416         1.715500         2.838821
 H        -3.128673        -0.755287         2.300059
 H        -4.403377         0.608603         0.796212
 H        -3.219417         2.479036        -0.552752
 H        -2.667514         2.694291         1.279185
 H        -1.075238         1.522772        -1.142956
 H        -0.580918         2.672513        -0.034045
 H        -1.390926        -1.618019         0.475206
