19
Iteration:  3449charge 0 multiplicity 1
 O         0.588037         0.288938         0.473905
 C        -0.742014         0.607289         0.800275
 C        -1.279701         0.618951         2.309766
 C        -2.590259         0.054080         1.729246
 C        -3.308026         0.730804         0.450397
 C        -2.769526         2.065959         0.225424
 C        -1.173206         1.907614         0.084914
 O        -2.760013        -0.221517        -0.486005
 C        -1.783209        -0.589757         0.544678
 H         1.089347         1.042240         0.543397
 H        -0.901233        -0.183734         2.934794
 H        -1.178725         1.653867         2.800168
 H        -3.209299        -0.713696         2.308646
 H        -4.363284         0.647782         0.617368
 H        -3.218088         2.564233        -0.652611
 H        -3.170600         2.648553         1.082586
 H        -0.756802         1.660419        -0.867668
 H        -0.716222         2.802343         0.561768
 H        -1.446850        -1.625844         0.557484
