19
Iteration:  4130
 O         0.611991         0.297452         0.613300
 C        -0.794312         0.584495         0.751436
 C        -1.372976         0.720764         2.187847
 C        -2.590285        -0.100095         1.734730
 C        -3.274224         0.722786         0.521072
 C        -2.680258         2.148014         0.307346
 C        -1.207756         1.913141         0.039947
 O        -2.776523        -0.207504        -0.457811
 C        -1.703324        -0.593400         0.490013
 H         0.785848         0.462024        -0.263288
 H        -0.695350         0.107541         2.873923
 H        -1.678267         1.609575         2.764159
 H        -3.219561        -0.666349         2.384705
 H        -4.390864         0.746946         0.281987
 H        -3.300068         2.515825        -0.500744
 H        -2.751286         2.607568         1.311796
 H        -0.962600         1.771318        -1.052684
 H        -0.569616         2.654302         0.394671
 H        -1.479939        -1.679292         0.369478
