19
Iteration:  1784
 O         0.716638         0.302427         0.707412
 C        -0.672402         0.565365         0.750813
 C        -1.334036         0.653797         2.237856
 C        -2.621559        -0.027089         1.676667
 C        -3.385789         0.754999         0.539114
 C        -2.763245         2.096956         0.353436
 C        -1.248027         1.822026        -0.051974
 O        -2.815167        -0.183702        -0.485294
 C        -1.724021        -0.542164         0.402016
 H         1.055617         1.034658         0.252640
 H        -0.835008        -0.131729         2.935305
 H        -1.154992         1.680584         2.872942
 H        -3.256707        -0.626264         2.316874
 H        -4.473125         0.752803         0.418965
 H        -3.139283         2.619973        -0.575046
 H        -2.847312         2.620969         1.296731
 H        -1.186532         1.598760        -1.131442
 H        -0.609638         2.549026         0.406005
 H        -1.361656        -1.570340         0.196516
