19
Iteration:   694charge 0 multiplicity 1
 O         0.607227         0.377903         0.444083
 C        -0.773558         0.574443         0.805674
 C        -1.360602         0.784620         2.331868
 C        -2.638686         0.031291         1.736249
 C        -3.289279         0.657303         0.446721
 C        -2.682244         2.100483         0.245518
 C        -1.132843         1.867270         0.121197
 O        -2.716921        -0.314190        -0.463875
 C        -1.809993        -0.618245         0.598232
 H         0.620643         0.106690        -0.551309
 H        -0.886057         0.262560         3.117925
 H        -1.616417         1.777253         2.641667
 H        -3.438583        -0.500251         2.437057
 H        -4.358044         0.676636         0.381914
 H        -3.118171         2.428528        -0.832206
 H        -2.872224         2.890251         0.964758
 H        -0.927774         1.792992        -0.965836
 H        -0.498506         2.578410         0.642021
 H        -1.273574        -1.484550         0.494758
