19
Iteration:  3088charge 0 multiplicity 1
 O         0.630879         0.204640         0.753355
 C        -0.732610         0.668036         0.743573
 C        -1.274249         0.685532         2.224771
 C        -2.549355        -0.061112         1.646891
 C        -3.330803         0.700562         0.558530
 C        -2.722667         2.119504         0.322467
 C        -1.240051         1.901470        -0.103605
 O        -2.826413        -0.226173        -0.494430
 C        -1.764431        -0.546666         0.401228
 H         1.269032         1.018319         0.683586
 H        -0.819129         0.286693         3.092870
 H        -1.568475         1.697403         2.543325
 H        -3.135614        -0.706980         2.428093
 H        -4.354405         0.654757         0.835869
 H        -3.313592         2.615988        -0.458907
 H        -2.719549         2.733407         1.224924
 H        -1.253874         1.601914        -1.164851
 H        -0.568563         2.754944         0.266735
 H        -1.412306        -1.610825         0.312879
