19
Iteration:  4993charge 0 multiplicity 1
 O         0.575605         0.277804         0.633852
 C        -0.780843         0.606451         0.836249
 C        -1.213885         0.637344         2.318049
 C        -2.558146         0.033750         1.646890
 C        -3.316333         0.690151         0.463498
 C        -2.774105         2.159916         0.306955
 C        -1.215035         1.919207         0.069636
 O        -2.686971        -0.204520        -0.565371
 C        -1.850613        -0.578460         0.499010
 H         0.582982         0.211853        -0.281066
 H        -0.700925        -0.158558         2.908823
 H        -1.297405         1.572744         2.783289
 H        -3.010827        -0.556275         2.426784
 H        -4.354398         0.409848         0.340723
 H        -3.207174         2.560173        -0.583869
 H        -3.081902         2.651965         1.222294
 H        -1.073419         1.700886        -1.028651
 H        -0.495785         2.737042         0.489252
 H        -1.444049        -1.601441         0.381848
