19
Iteration:  4380
 O         0.565987         0.197888         0.556355
 C        -0.792309         0.696898         0.866353
 C        -1.432111         0.700147         2.309661
 C        -2.508479        -0.077742         1.684943
 C        -3.263409         0.708315         0.579008
 C        -2.708273         2.055879         0.277900
 C        -1.197002         1.756205        -0.082630
 O        -2.757417        -0.122104        -0.483536
 C        -1.726213        -0.500580         0.471524
 H         1.150400         0.972104         0.510596
 H        -0.632453         0.242080         2.931017
 H        -1.630653         1.707387         2.686844
 H        -3.125575        -0.779914         2.200264
 H        -4.359114         0.704866         0.816692
 H        -3.413509         2.476620        -0.483512
 H        -2.915075         2.820183         1.133977
 H        -0.965622         1.465518        -1.153912
 H        -0.697307         2.790775         0.156354
 H        -1.190276        -1.371049         0.191746
