19
Iteration:  2601charge 0 multiplicity 1
 O         0.560993         0.299524         0.564446
 C        -0.757464         0.622000         0.753475
 C        -1.238620         0.614327         2.295927
 C        -2.553649        -0.018643         1.742135
 C        -3.328354         0.691508         0.466683
 C        -2.740919         2.173181         0.199018
 C        -1.249776         1.920329         0.068262
 O        -2.762976        -0.286961        -0.503938
 C        -1.772816        -0.557104         0.639239
 H         0.913053         0.675502        -0.276767
 H        -0.577224        -0.192912         2.675694
 H        -1.103691         1.603822         2.688990
 H        -3.247384        -0.513452         2.395854
 H        -4.383861         0.561434         0.301847
 H        -3.305649         2.653908        -0.637718
 H        -2.974212         2.755136         1.139906
 H        -0.916309         1.851888        -1.014730
 H        -0.558692         2.895699         0.413772
 H        -1.293236        -1.527723         0.807770
