19
Iteration:  3220charge 0 multiplicity 1
 O         0.593528         0.341397         0.602675
 C        -0.771702         0.673295         0.764136
 C        -1.371002         0.647723         2.293848
 C        -2.558556        -0.097631         1.680791
 C        -3.313206         0.716146         0.537501
 C        -2.609829         2.074807         0.348396
 C        -1.219345         1.812250        -0.096437
 O        -2.806209        -0.162765        -0.478289
 C        -1.779188        -0.574159         0.468287
 H         1.161328         0.847289         1.309456
 H        -0.676226        -0.059281         2.759447
 H        -1.507552         1.544038         2.955757
 H        -3.204829        -0.871247         2.296269
 H        -4.401034         0.776977         0.616600
 H        -3.195743         2.452189        -0.531385
 H        -2.504681         2.886242         1.075719
 H        -1.120413         1.661084        -1.182200
 H        -0.630443         2.809765        -0.049021
 H        -1.421480        -1.618031         0.234493
