19
Iteration:   323charge 0 multiplicity 1
 O         0.681881         0.314206         0.743191
 C        -0.726299         0.615846         0.722113
 C        -1.274092         0.813264         2.134124
 C        -2.527940        -0.020310         1.727057
 C        -3.287067         0.709445         0.537824
 C        -2.753731         2.026385         0.356062
 C        -1.205210         1.811513        -0.102809
 O        -2.875735        -0.226132        -0.503868
 C        -1.806398        -0.602268         0.398315
 H         1.023000         0.508718         1.648076
 H        -0.596751         0.391683         2.868303
 H        -1.519213         1.790431         2.537402
 H        -3.153660        -0.595134         2.447275
 H        -4.451264         0.751476         0.557576
 H        -3.439403         2.638154        -0.375236
 H        -2.828692         2.575280         1.248156
 H        -1.049248         1.656889        -1.174646
 H        -0.651999         2.602901         0.251538
 H        -1.634258        -1.662710         0.319504
