19
Iteration:  3085
 O         0.606240         0.202060         0.744717
 C        -0.722130         0.642071         0.737350
 C        -1.312423         0.709055         2.228159
 C        -2.539035        -0.071689         1.658154
 C        -3.351967         0.709965         0.572471
 C        -2.700166         2.119539         0.319664
 C        -1.250282         1.937573        -0.105589
 O        -2.818737        -0.255478        -0.499208
 C        -1.755591        -0.550049         0.394103
 H         1.270798         0.979670         0.684468
 H        -0.812204         0.340729         3.200833
 H        -1.523304         1.759107         2.710839
 H        -3.015108        -0.693074         2.344569
 H        -4.382471         0.651028         0.880420
 H        -3.295166         2.579163        -0.416707
 H        -2.638844         2.755558         1.254010
 H        -1.114440         1.613432        -1.188192
 H        -0.499872         2.774788         0.240565
 H        -1.388931        -1.555901         0.142088
