19
Iteration:  4936
 O         0.582575         0.376832         0.791234
 C        -0.834387         0.629142         0.814272
 C        -1.254274         0.607374         2.226845
 C        -2.499273        -0.149811         1.691081
 C        -3.239533         0.748934         0.595915
 C        -2.608389         2.103146         0.178647
 C        -1.201506         1.841377         0.011504
 O        -2.914810        -0.175990        -0.498501
 C        -1.825118        -0.564036         0.395179
 H         1.052751         0.669582        -0.057156
 H        -0.606090         0.078718         2.935106
 H        -1.493971         1.579660         2.632349
 H        -3.019018        -0.886225         2.416236
 H        -4.338850         0.900569         0.505032
 H        -3.179089         2.447424        -0.713160
 H        -2.987885         2.787057         0.972767
 H        -1.059062         1.750245        -1.088906
 H        -0.612561         2.708324         0.230897
 H        -1.270294        -1.526267        -0.030279
