19
Iteration:  1078charge 0 multiplicity 1
 O         0.606159         0.218324         0.725781
 C        -0.741739         0.655214         0.720773
 C        -1.386830         0.838192         2.209140
 C        -2.466591        -0.082901         1.717534
 C        -3.323199         0.673051         0.668949
 C        -2.740809         2.037912         0.338525
 C        -1.233232         1.792943        -0.175497
 O        -2.779878        -0.122359        -0.474974
 C        -1.744923        -0.588453         0.378146
 H         1.281914         0.907057         0.977092
 H        -0.680156         0.549799         2.998251
 H        -1.757277         1.711081         2.779221
 H        -3.088453        -0.882041         2.306750
 H        -4.376570         0.640253         0.558951
 H        -3.338751         2.539254        -0.424517
 H        -2.695953         2.715142         1.253942
 H        -1.276150         1.500584        -1.301681
 H        -0.639113         2.722540        -0.171237
 H        -1.376306        -1.538591         0.157408
