19
Iteration:   160charge 0 multiplicity 1
 O         0.662959         0.454869         0.763182
 C        -0.729542         0.611502         0.776138
 C        -1.266260         0.726761         2.142272
 C        -2.616383        -0.031387         1.644403
 C        -3.363837         0.722229         0.574886
 C        -2.664487         2.021532         0.309559
 C        -1.145255         1.794824        -0.038867
 O        -2.849995        -0.220731        -0.468946
 C        -1.828898        -0.618113         0.480032
 H         0.904460         0.320197        -0.243605
 H        -0.857367         0.000288         2.844944
 H        -1.081596         1.673715         2.661312
 H        -3.151962        -0.829180         2.201118
 H        -4.446778         0.876849         0.529647
 H        -3.123601         2.466249        -0.634211
 H        -2.872499         2.723258         1.139257
 H        -1.111431         1.547933        -1.143444
 H        -0.607369         2.772480         0.285626
 H        -1.657280        -1.704948         0.436533
