19
Iteration:   152charge 0 multiplicity 1
 O         0.624346         0.390060         0.671818
 C        -0.730524         0.588249         0.774865
 C        -1.278410         0.696843         2.190152
 C        -2.590422         0.029388         1.653267
 C        -3.353981         0.736069         0.529389
 C        -2.709238         2.055426         0.268406
 C        -1.165529         1.851629         0.032343
 O        -2.812997        -0.273510        -0.479266
 C        -1.813811        -0.614928         0.546968
 H         0.988401         0.675675        -0.229557
 H        -0.844691        -0.230597         2.779629
 H        -1.206604         1.702888         2.714769
 H        -3.183070        -0.527294         2.365929
 H        -4.414260         0.704064         0.507988
 H        -3.034225         2.444296        -0.652800
 H        -3.022834         2.892498         1.117185
 H        -0.958490         1.762706        -0.991059
 H        -0.505796         2.666373         0.407508
 H        -1.473487        -1.751483         0.397022
