19
Iteration:   711charge 0 multiplicity 1
 O         0.636747         0.323674         0.476737
 C        -0.730983         0.550688         0.858230
 C        -1.317212         0.740546         2.238884
 C        -2.592234         0.104781         1.708006
 C        -3.306995         0.727298         0.461579
 C        -2.760276         2.068114         0.153486
 C        -1.270562         1.880463         0.152775
 O        -2.673825        -0.271318        -0.486445
 C        -1.772320        -0.627885         0.614286
 H         0.562562        -0.263208        -0.314859
 H        -0.871387         0.121346         3.088897
 H        -1.164876         1.808914         2.610850
 H        -3.152937        -0.441234         2.393279
 H        -4.430775         0.625562         0.436308
 H        -3.189168         2.637416        -0.554484
 H        -3.187148         2.578340         1.079709
 H        -0.809679         2.042605        -0.815323
 H        -0.840129         2.825905         0.584894
 H        -1.682592        -1.785010         0.831703
