19
Iteration:  1424
 O         0.532544         0.232117         0.619183
 C        -0.763560         0.619767         0.796025
 C        -1.331317         0.726035         2.226216
 C        -2.534320        -0.106722         1.646370
 C        -3.271339         0.711085         0.513763
 C        -2.722327         2.113666         0.197189
 C        -1.171788         1.982866         0.128102
 O        -2.774383        -0.271849        -0.425190
 C        -1.712369        -0.494499         0.496305
 H         0.468876         0.068023        -0.283117
 H        -0.854130         0.020527         2.892026
 H        -1.405834         1.596190         2.662200
 H        -3.127798        -0.753298         2.247988
 H        -4.373886         0.757834         0.632576
 H        -3.326667         2.501942        -0.726362
 H        -3.024739         2.895859         0.914209
 H        -0.853004         1.989238        -0.919218
 H        -0.633658         2.789559         0.603784
 H        -1.287343        -1.542706         0.267400
