19
Iteration:    81charge 0 multiplicity 1
 O         0.628210         0.306901         0.509137
 C        -0.742264         0.618896         0.788214
 C        -1.226572         0.693227         2.291601
 C        -2.522232        -0.050206         1.702227
 C        -3.347691         0.733099         0.491062
 C        -2.768112         2.109799         0.111224
 C        -1.183653         1.939933         0.110418
 O        -2.839559        -0.261953        -0.432700
 C        -1.784382        -0.642025         0.537281
 H         1.074269         0.119723         1.357482
 H        -0.728218         0.089214         2.987570
 H        -1.471170         1.673303         2.662637
 H        -3.224992        -0.611201         2.351605
 H        -4.478613         0.793241         0.510509
 H        -3.162301         2.442106        -0.975502
 H        -3.093894         2.889766         0.750601
 H        -0.772963         2.132109        -0.981102
 H        -0.793382         2.842087         0.698122
 H        -1.441979        -1.610224         0.461251
