19
Iteration:  3734charge 0 multiplicity 1
 O         0.612153         0.331991         0.656972
 C        -0.764482         0.659893         0.826920
 C        -1.286812         0.603531         2.288632
 C        -2.520275        -0.113342         1.700582
 C        -3.260400         0.769399         0.641719
 C        -2.758918         2.119773         0.095551
 C        -1.197676         1.954056         0.041017
 O        -2.836205        -0.241828        -0.474525
 C        -1.743166        -0.567450         0.398340
 H         0.585399        -0.223683        -0.188916
 H        -0.537924         0.150558         2.898131
 H        -1.475339         1.593074         2.732453
 H        -3.181810        -0.673222         2.483044
 H        -4.365299         0.594230         0.679477
 H        -3.239250         2.345432        -0.872779
 H        -3.155745         2.975114         0.715211
 H        -0.783514         1.934547        -0.999268
 H        -0.697893         2.688248         0.749465
 H        -1.554740        -1.617568         0.411510
