19
Iteration:   886charge 0 multiplicity 1
 O         0.627836         0.240528         0.629064
 C        -0.728196         0.673754         0.773019
 C        -1.271902         0.654245         2.256932
 C        -2.533678         0.009068         1.709634
 C        -3.322500         0.710075         0.532238
 C        -2.739269         2.072157         0.133782
 C        -1.197742         1.947287         0.014894
 O        -2.901040        -0.292283        -0.455785
 C        -1.753739        -0.525753         0.498802
 H         1.234466         0.980514         0.803863
 H        -0.782423        -0.171802         2.783155
 H        -1.096123         1.606155         2.767063
 H        -3.073612        -0.584458         2.307003
 H        -4.422360         0.552444         0.696975
 H        -3.233996         2.427012        -0.795146
 H        -3.067962         2.725283         1.023077
 H        -0.858610         1.938333        -1.000601
 H        -0.821072         2.760313         0.704907
 H        -1.321944        -1.584365         0.338925
