19
Iteration:   417
 O         0.629409         0.303300         0.575786
 C        -0.693302         0.678511         0.804485
 C        -1.321160         0.692131         2.224844
 C        -2.550944         0.015624         1.738424
 C        -3.321270         0.672661         0.504145
 C        -2.749399         2.056240         0.083563
 C        -1.075387         2.114968         0.171516
 O        -2.895005        -0.392602        -0.472665
 C        -1.805518        -0.580419         0.509288
 H         0.679465        -0.597253         0.055225
 H        -0.706235         0.097162         2.978159
 H        -1.403773         1.690073         2.732356
 H        -3.074384        -0.581970         2.533753
 H        -4.367365         0.678908         0.374991
 H        -3.253929         2.226995        -0.844324
 H        -3.123585         2.859977         0.751349
 H        -0.494893         2.278055        -0.821019
 H        -0.832040         2.912024         1.032958
 H        -1.345694        -1.616017         0.555677
