19
Iteration:  2974charge 0 multiplicity 1
 O         0.598459         0.221806         0.611138
 C        -0.748533         0.659477         0.761269
 C        -1.375280         0.756859         2.259490
 C        -2.523324        -0.161102         1.648751
 C        -3.321738         0.723704         0.600385
 C        -2.667056         2.065042         0.260520
 C        -1.173739         1.967289        -0.017972
 O        -2.848170        -0.249292        -0.413274
 C        -1.727015        -0.539590         0.422337
 H         1.179145         0.936881         0.507179
 H        -0.914212         0.159091         3.044787
 H        -1.733114         1.760765         2.387599
 H        -3.085284        -0.731510         2.285015
 H        -4.423926         0.873509         0.661526
 H        -3.268932         2.485205        -0.556612
 H        -2.900007         2.765954         1.085543
 H        -0.904226         1.564511        -1.001851
 H        -0.519624         2.813696         0.396632
 H        -1.369580        -1.539878         0.244697
