19
Iteration:  2302charge 0 multiplicity 1
 O         0.625116         0.255664         0.630019
 C        -0.724310         0.677777         0.755476
 C        -1.275994         0.705230         2.205320
 C        -2.523510        -0.092436         1.715932
 C        -3.376924         0.671291         0.606748
 C        -2.762631         2.092282         0.149480
 C        -1.168851         1.982755         0.151782
 O        -2.893872        -0.296962        -0.427909
 C        -1.721358        -0.472291         0.419466
 H         0.835451         0.302887        -0.271594
 H        -0.697044         0.114693         2.866504
 H        -1.329215         1.674802         2.722885
 H        -2.844958        -0.838211         2.332572
 H        -4.439495         0.717014         0.763210
 H        -3.127953         1.871331        -0.914604
 H        -3.196958         3.010954         0.621024
 H        -0.926217         2.088608        -0.945974
 H        -0.410379         2.727744         0.652928
 H        -1.299398        -1.469694         0.332928
