19
Iteration:  1601charge 0 multiplicity 1
 O         0.586236         0.325734         0.472568
 C        -0.715395         0.513024         0.826996
 C        -1.280016         0.579841         2.306141
 C        -2.630625         0.062060         1.718184
 C        -3.351543         0.709943         0.463700
 C        -2.691113         2.128063         0.155888
 C        -1.240438         1.947062         0.155030
 O        -2.768866        -0.280089        -0.478569
 C        -1.764783        -0.601253         0.548345
 H         1.108081         1.145020         0.164920
 H        -0.764832        -0.158206         3.022154
 H        -1.127724         1.778432         2.822807
 H        -3.296358        -0.481399         2.383033
 H        -4.473264         0.731935         0.495436
 H        -2.931663         2.601356        -0.825514
 H        -2.893445         2.792167         0.989050
 H        -0.773343         2.113814        -0.861137
 H        -0.822973         2.668213         0.813821
 H        -1.393808        -1.679796         0.432007
