19
Iteration:  4434
 O         0.722433         0.421634         0.628669
 C        -0.740299         0.575136         0.768393
 C        -1.318931         0.615084         2.301176
 C        -2.612775         0.074916         1.718495
 C        -3.423951         0.697916         0.499806
 C        -2.628583         2.076868         0.208199
 C        -1.149898         1.873522         0.125056
 O        -2.906894        -0.299487        -0.469772
 C        -1.783116        -0.605106         0.406425
 H         1.009686         0.791091        -0.186370
 H        -0.785091        -0.124910         2.867463
 H        -1.176127         1.595295         2.633393
 H        -3.143196        -0.567117         2.386264
 H        -4.518522         0.858478         0.525553
 H        -3.057073         2.525462        -0.696139
 H        -2.885891         2.653895         1.118210
 H        -0.879065         1.762565        -0.933677
 H        -0.630738         2.777590         0.542199
 H        -1.469209        -1.612873         0.310696
