19
Iteration:  2070charge 0 multiplicity 1
 O         0.622343         0.370504         0.678086
 C        -0.783757         0.640872         0.793612
 C        -1.341299         0.747533         2.170113
 C        -2.509636        -0.128252         1.678049
 C        -3.368797         0.752692         0.674232
 C        -2.627827         2.083193         0.223059
 C        -1.195824         1.811926        -0.029755
 O        -2.828830        -0.240482        -0.378555
 C        -1.795450        -0.583950         0.387896
 H         1.030150         0.935602         0.114257
 H        -0.851787         0.014404         2.836985
 H        -1.373481         1.638000         2.802086
 H        -3.004370        -0.881067         2.258246
 H        -4.456441         0.859577         0.648927
 H        -3.259095         2.214010        -0.771247
 H        -2.965759         2.965912         0.811113
 H        -1.050783         1.542623        -1.125044
 H        -0.451754         2.574220         0.196766
 H        -1.218893        -1.515644         0.116362
