19
Iteration:  2953charge 0 multiplicity 1
 O         0.626882         0.183664         0.705914
 C        -0.713549         0.639564         0.725356
 C        -1.314545         0.774690         2.186128
 C        -2.563369        -0.068999         1.747978
 C        -3.338739         0.709029         0.555403
 C        -2.767065         2.033722         0.339315
 C        -1.239868         1.821638        -0.042162
 O        -2.813163        -0.128239        -0.518491
 C        -1.729941        -0.525896         0.416322
 H         1.187655         1.049397         0.494713
 H        -0.721048         0.126573         2.776724
 H        -1.576439         1.733486         2.490405
 H        -2.866520        -0.701478         2.517758
 H        -4.330275         0.408834         0.732511
 H        -3.123234         2.598427        -0.497891
 H        -2.840119         2.715942         1.218924
 H        -1.141868         1.583556        -1.133162
 H        -0.691406         2.805212         0.236286
 H        -1.289610        -1.500002         0.460739
