19
Iteration:  4185
 O         0.617155         0.381558         0.689958
 C        -0.700426         0.618426         0.785853
 C        -1.259143         0.580660         2.196355
 C        -2.591679        -0.100204         1.710046
 C        -3.348131         0.765226         0.616256
 C        -2.736308         2.114087         0.210724
 C        -1.188404         1.906038         0.023955
 O        -2.812408        -0.207794        -0.478398
 C        -1.724148        -0.537714         0.457576
 H         0.809941        -0.082762        -0.073606
 H        -0.736425        -0.200644         2.850869
 H        -1.437044         1.421229         2.892406
 H        -3.319477        -0.690312         2.239491
 H        -4.486167         0.683395         0.641529
 H        -3.287775         2.294469        -0.719714
 H        -2.988991         3.047533         0.774763
 H        -1.053406         1.704060        -1.060848
 H        -0.729717         2.811456         0.234714
 H        -1.437465        -1.603300         0.271227
