19
Iteration:   604
 O         0.584126         0.428997         0.643502
 C        -0.792639         0.666647         0.827847
 C        -1.365612         0.726303         2.285144
 C        -2.591030        -0.062028         1.707970
 C        -3.286749         0.708466         0.518344
 C        -2.588915         2.112328         0.218998
 C        -1.125624         1.843573        -0.042393
 O        -2.824699        -0.304253        -0.479028
 C        -1.816788        -0.620338         0.520789
 H         0.719331         0.202752        -0.322742
 H        -0.760424         0.110318         2.971415
 H        -1.493607         1.741025         2.695537
 H        -3.220936        -0.697590         2.456821
 H        -4.319361         0.729920         0.461787
 H        -3.215344         2.626659        -0.579383
 H        -2.741730         2.612836         1.240119
 H        -1.044370         1.353723        -0.971923
 H        -0.463322         2.678387         0.074232
 H        -1.179563        -1.533582         0.344197
