19
Iteration:  3112charge 0 multiplicity 1
 O         0.659671         0.328032         0.642029
 C        -0.730767         0.579558         0.768263
 C        -1.300930         0.684319         2.228705
 C        -2.633859        -0.018574         1.696685
 C        -3.413344         0.738830         0.517469
 C        -2.698189         2.082469         0.270993
 C        -1.222951         1.782185        -0.011527
 O        -2.749872        -0.159927        -0.471967
 C        -1.764848        -0.568217         0.475981
 H         1.089001         1.257378         0.586946
 H        -0.927050        -0.190432         2.737273
 H        -1.142449         1.459927         2.973848
 H        -3.086707        -0.738248         2.516117
 H        -4.514891         0.759333         0.678066
 H        -3.208784         2.481496        -0.670557
 H        -2.779226         2.806812         1.057465
 H        -1.190941         1.455100        -1.048004
 H        -0.545771         2.579231         0.321116
 H        -1.445621        -1.609766         0.203074
