19
Iteration:  2298charge 0 multiplicity 1
 O         0.614521         0.262118         0.654687
 C        -0.720444         0.692064         0.739729
 C        -1.240928         0.694129         2.225421
 C        -2.530755        -0.063025         1.718498
 C        -3.417142         0.682657         0.585910
 C        -2.750137         2.087560         0.168358
 C        -1.171353         1.997645         0.142085
 O        -2.889871        -0.320132        -0.431406
 C        -1.711404        -0.483957         0.425868
 H         0.894950         0.234457        -0.368959
 H        -0.592233        -0.014379         2.822917
 H        -1.309058         1.674778         2.715596
 H        -2.959650        -0.903769         2.374788
 H        -4.542882         0.687903         0.703675
 H        -3.005881         2.010399        -0.840671
 H        -3.133762         2.942127         0.635443
 H        -1.036076         2.106756        -0.961869
 H        -0.494489         2.718387         0.505073
 H        -1.288430        -1.497219         0.217963
