19
Iteration:  3478charge 0 multiplicity 1
 O         0.577796         0.343668         0.558774
 C        -0.791218         0.676610         0.776638
 C        -1.364954         0.600366         2.276738
 C        -2.595422        -0.110041         1.721664
 C        -3.247886         0.748294         0.564881
 C        -2.661781         2.117916         0.227245
 C        -1.199449         1.825478        -0.014932
 O        -2.848390        -0.202813        -0.435080
 C        -1.712249        -0.578650         0.484831
 H         1.232942         1.040407         0.427567
 H        -0.812836        -0.076660         2.964091
 H        -1.393282         1.562649         2.707246
 H        -3.215702        -0.850307         2.156706
 H        -4.321283         0.764244         0.890444
 H        -3.117374         2.414072        -0.698610
 H        -2.985564         2.984805         0.832479
 H        -0.658005         1.658533        -0.975772
 H        -0.679630         2.794317         0.314789
 H        -1.225290        -1.591572         0.394071
