19
Iteration:  4025
 O         0.639660         0.203762         0.566129
 C        -0.745647         0.707503         0.795394
 C        -1.327499         0.690490         2.287230
 C        -2.591486        -0.072077         1.692567
 C        -3.297477         0.720373         0.490749
 C        -2.722293         2.077148         0.322755
 C        -1.235376         1.874486         0.005916
 O        -2.740460        -0.170465        -0.520868
 C        -1.779512        -0.515957         0.580944
 H         0.816004         0.234908        -0.377233
 H        -1.019984        -0.003776         3.081140
 H        -1.452579         1.757303         2.571543
 H        -3.130385        -0.743156         2.397713
 H        -4.342057         0.567514         0.581123
 H        -3.162855         2.534408        -0.621325
 H        -3.145772         2.689159         1.134549
 H        -0.950088         1.705188        -1.035352
 H        -0.629523         2.814279         0.271937
 H        -1.348617        -1.555000         0.603655
