19
Iteration:  4256
 O         0.631093         0.233631         0.635555
 C        -0.766256         0.676720         0.748033
 C        -1.311232         0.672308         2.183822
 C        -2.581320         0.004765         1.691134
 C        -3.375314         0.684237         0.505386
 C        -2.705865         2.053273         0.355484
 C        -1.220235         1.894104        -0.052698
 O        -2.767426        -0.196785        -0.458210
 C        -1.743294        -0.582424         0.510988
 H         1.181222         0.890224         0.355548
 H        -0.767887         0.036062         2.867055
 H        -1.266749         1.695633         2.622560
 H        -3.149905        -0.623573         2.441383
 H        -4.416861         0.625343         0.253997
 H        -3.367289         2.709196        -0.295901
 H        -2.898478         2.562152         1.338087
 H        -1.010991         1.812440        -1.121205
 H        -0.661264         2.841820         0.389441
 H        -1.393278        -1.663619         0.441452
