19
Iteration:  2326charge 0 multiplicity 1
 O         0.604060         0.332266         0.573360
 C        -0.722425         0.633443         0.743864
 C        -1.293615         0.693110         2.301657
 C        -2.543290        -0.097903         1.751677
 C        -3.333188         0.742267         0.589518
 C        -2.681460         2.006996         0.124514
 C        -1.219063         1.933865         0.092179
 O        -2.826535        -0.201922        -0.424881
 C        -1.769758        -0.669332         0.446275
 H         0.925943         0.718249        -0.371050
 H        -0.611575         0.360275         3.102808
 H        -1.567316         1.713289         2.642646
 H        -3.236724        -0.629137         2.424890
 H        -4.394084         0.797955         0.802405
 H        -3.193832         2.167551        -0.902556
 H        -2.908053         2.845396         0.897217
 H        -0.943955         2.228783        -0.916107
 H        -0.691163         2.746523         0.729249
 H        -1.440160        -1.634384         0.059720
