19
Iteration:  4975charge 0 multiplicity 1
 O         0.695226         0.318504         0.612781
 C        -0.665070         0.572654         0.751258
 C        -1.311428         0.655986         2.230959
 C        -2.680250        -0.020707         1.697240
 C        -3.372360         0.771108         0.395186
 C        -2.730763         2.061269         0.300429
 C        -1.269599         1.859038         0.139002
 O        -2.775973        -0.239627        -0.494584
 C        -1.728294        -0.518112         0.509033
 H         0.898821         0.311053        -0.276897
 H        -0.925484        -0.157221         2.844253
 H        -1.179470         1.665987         2.746933
 H        -3.384803        -0.530470         2.399871
 H        -4.462928         0.874742         0.469902
 H        -3.052202         2.841188        -0.414366
 H        -2.881730         2.551022         1.290043
 H        -1.086188         1.723665        -0.935855
 H        -0.625506         2.678236         0.598424
 H        -1.287903        -1.480570         0.544287
