19
Iteration:  3696charge 0 multiplicity 1
 O         0.724648         0.333960         0.654563
 C        -0.713156         0.603756         0.741501
 C        -1.288934         0.667616         2.216267
 C        -2.607035         0.000053         1.650266
 C        -3.345035         0.712684         0.548210
 C        -2.769259         2.133458         0.230658
 C        -1.203954         1.846052         0.084873
 O        -2.858261        -0.305857        -0.454672
 C        -1.790256        -0.568348         0.484555
 H         1.099002         0.966213        -0.110969
 H        -0.828665        -0.170028         2.811182
 H        -1.406519         1.562624         2.833786
 H        -3.321255        -0.515051         2.227217
 H        -4.441232         0.725533         0.684602
 H        -3.154574         2.673582        -0.671779
 H        -2.670271         2.812295         1.083562
 H        -0.923044         1.963722        -0.964097
 H        -0.646518         2.697095         0.424127
 H        -1.333395        -1.599665         0.447928
