19
Iteration:  4416charge 0 multiplicity 1
 O         0.673135         0.304982         0.684365
 C        -0.701629         0.606188         0.746237
 C        -1.259290         0.662644         2.129039
 C        -2.602973         0.025417         1.648963
 C        -3.297776         0.727718         0.501450
 C        -2.771621         2.071269         0.289309
 C        -1.181644         1.886955         0.028757
 O        -2.847744        -0.282673        -0.475121
 C        -1.844340        -0.554811         0.544658
 H         1.060597         1.006077         0.174894
 H        -0.762110        -0.209821         2.713780
 H        -1.265727         1.556928         2.851251
 H        -3.267209        -0.493859         2.388773
 H        -4.410277         0.638032         0.554391
 H        -3.201640         2.609069        -0.564710
 H        -2.893110         2.597816         1.272818
 H        -0.866649         2.011171        -1.057491
 H        -0.687162         2.706401         0.621879
 H        -1.377824        -1.572274         0.470810
