19
Iteration:  3499
 O         0.687336         0.245514         0.714036
 C        -0.704267         0.667925         0.726046
 C        -1.278182         0.695860         2.230572
 C        -2.515750        -0.084754         1.717363
 C        -3.444970         0.701219         0.577790
 C        -2.682503         2.062832         0.282744
 C        -1.238635         1.877977        -0.030070
 O        -2.848220        -0.209732        -0.490932
 C        -1.815505        -0.522647         0.399170
 H         1.173551         1.181557         0.546629
 H        -0.642285         0.031412         2.870045
 H        -1.389254         1.643609         2.679975
 H        -3.079565        -0.587923         2.445340
 H        -4.564245         0.551547         0.630185
 H        -3.226174         2.599952        -0.493081
 H        -2.923921         2.795698         1.048494
 H        -0.975777         1.599635        -1.073155
 H        -0.529068         2.703050         0.246107
 H        -1.487485        -1.561523         0.124707
