19
Iteration:  1468
 O         0.665281         0.441247         0.514582
 C        -0.712470         0.553648         0.813202
 C        -1.261054         0.562679         2.301380
 C        -2.599913         0.045447         1.674073
 C        -3.386158         0.774831         0.492340
 C        -2.728428         2.094789         0.192392
 C        -1.211457         1.840651         0.119676
 O        -2.795867        -0.223044        -0.452642
 C        -1.811751        -0.597730         0.478384
 H         0.935488        -0.400504         0.872791
 H        -0.865921        -0.200771         2.969555
 H        -1.278178         1.518307         2.769323
 H        -3.105633        -0.553607         2.389759
 H        -4.488118         0.753755         0.415502
 H        -3.017406         2.626335        -0.776839
 H        -2.998693         2.914500         0.857114
 H        -0.805047         1.809905        -0.907997
 H        -0.736214         2.710098         0.489567
 H        -1.391053        -1.637887         0.504766
