19
Iteration:  4996
 O         0.548373         0.277840         0.650114
 C        -0.766618         0.592970         0.807888
 C        -1.229110         0.635906         2.336173
 C        -2.560660        -0.002476         1.646316
 C        -3.268830         0.703583         0.494024
 C        -2.768888         2.143878         0.283949
 C        -1.237801         1.939737         0.046775
 O        -2.680985        -0.190467        -0.565212
 C        -1.839153        -0.573579         0.484710
 H         0.575511         0.182397        -0.405733
 H        -0.814766        -0.181420         2.919010
 H        -1.319473         1.626156         2.850995
 H        -2.944441        -0.570477         2.482293
 H        -4.342840         0.470039         0.465754
 H        -3.251163         2.566844        -0.599972
 H        -3.089288         2.688690         1.178649
 H        -1.096430         1.731847        -1.044786
 H        -0.444507         2.669497         0.542884
 H        -1.469911        -1.541280         0.491713
