19
Iteration:  2499charge 0 multiplicity 1
 O         0.658136         0.324773         0.621520
 C        -0.734657         0.652212         0.822311
 C        -1.322956         0.674989         2.193906
 C        -2.565762        -0.064608         1.747139
 C        -3.355824         0.703202         0.563370
 C        -2.694020         2.076418         0.259773
 C        -1.228839         1.786553        -0.050791
 O        -2.810914        -0.195808        -0.437310
 C        -1.741623        -0.553557         0.492462
 H         0.831074         0.736942        -0.214437
 H        -0.725461         0.172134         2.968047
 H        -1.575112         1.740435         2.548750
 H        -3.063952        -0.546191         2.501266
 H        -4.478495         0.651654         0.620326
 H        -3.229994         2.777682        -0.440665
 H        -2.936216         2.657432         1.152577
 H        -1.125784         1.404834        -1.130478
 H        -0.638548         2.802754         0.120099
 H        -1.260969        -1.451689         0.032931
