19
Iteration:  1673
 O         0.629620         0.310891         0.657555
 C        -0.795943         0.627966         0.725030
 C        -1.339343         0.688713         2.176610
 C        -2.585633        -0.147892         1.711353
 C        -3.322048         0.714392         0.589952
 C        -2.605289         2.132908         0.405614
 C        -1.215676         1.903793        -0.117280
 O        -2.818047        -0.231273        -0.518886
 C        -1.780696        -0.619314         0.478661
 H         1.092143         0.987923         1.229248
 H        -0.928404         0.042622         2.943072
 H        -1.485824         1.744339         2.663918
 H        -3.211994        -0.642112         2.426468
 H        -4.386978         0.823925         0.488477
 H        -3.153333         2.667835        -0.423155
 H        -2.628755         2.835319         1.277593
 H        -1.261326         1.623202        -1.210647
 H        -0.474714         2.807286        -0.092863
 H        -1.187110        -1.463201         0.273077
