19
Iteration:  4522
 O         0.635607         0.358743         0.704624
 C        -0.758940         0.615692         0.718714
 C        -1.373458         0.707011         2.195261
 C        -2.621712        -0.082242         1.673019
 C        -3.320960         0.732544         0.517332
 C        -2.687930         2.085956         0.338585
 C        -1.120557         1.891652         0.018601
 O        -2.834299        -0.221917        -0.490141
 C        -1.761970        -0.654566         0.480960
 H         1.129349         0.553039        -0.191522
 H        -0.704162         0.059667         2.777255
 H        -1.500403         1.753539         2.418009
 H        -3.129957        -0.714226         2.412579
 H        -4.428443         0.745919         0.504495
 H        -3.203482         2.864071        -0.255952
 H        -2.727148         2.659381         1.316475
 H        -1.037864         1.579410        -0.998205
 H        -0.442566         2.735246         0.323082
 H        -1.407942        -1.663138         0.392841
