19
Iteration:  4453
 O         0.622662         0.412986         0.619815
 C        -0.726100         0.635279         0.808031
 C        -1.294604         0.616008         2.269762
 C        -2.546104        -0.152831         1.697745
 C        -3.299545         0.765876         0.569621
 C        -2.669741         2.140033         0.149870
 C        -1.163581         1.848963         0.090416
 O        -2.848973        -0.213908        -0.467743
 C        -1.805975        -0.594038         0.477270
 H         0.791021         0.350236        -0.269475
 H        -0.874689        -0.135735         2.934335
 H        -1.608573         1.603889         2.733123
 H        -3.385929        -0.675751         2.165275
 H        -4.367441         0.927141         0.640372
 H        -3.283208         2.361766        -0.785783
 H        -3.010634         2.912088         0.819199
 H        -0.992557         1.682407        -0.948209
 H        -0.577003         2.639335         0.440217
 H        -1.371996        -1.642629         0.527852
