19
Iteration:  1361charge 0 multiplicity 1
 O         0.659408         0.456690         0.680731
 C        -0.751629         0.549278         0.847036
 C        -1.288127         0.559522         2.272587
 C        -2.575893        -0.118422         1.729647
 C        -3.294651         0.781535         0.593896
 C        -2.658604         2.158635         0.246811
 C        -1.259862         1.783718        -0.173528
 O        -2.801369        -0.171162        -0.492563
 C        -1.851866        -0.590111         0.406341
 H         0.953172         1.241940         1.061758
 H        -0.675807        -0.223087         2.867776
 H        -1.352130         1.503690         2.991121
 H        -3.145079        -0.651976         2.442799
 H        -4.405124         0.862053         0.508433
 H        -3.160902         2.635342        -0.610106
 H        -2.657553         2.694893         1.153179
 H        -1.363936         1.281553        -1.197500
 H        -0.560508         2.609726        -0.202424
 H        -1.566949        -1.693361         0.336243
