19
Iteration:   605charge 0 multiplicity 1
 O         0.593392         0.432063         0.658575
 C        -0.784690         0.654750         0.820311
 C        -1.367432         0.732930         2.290541
 C        -2.584883        -0.068066         1.709735
 C        -3.290347         0.705741         0.522980
 C        -2.585476         2.116457         0.221347
 C        -1.130073         1.845970        -0.051250
 O        -2.830097        -0.298077        -0.481837
 C        -1.819698        -0.627067         0.518210
 H         0.723645         0.223282        -0.355447
 H        -0.820052         0.117219         2.954361
 H        -1.489577         1.725636         2.673259
 H        -3.197061        -0.704711         2.487092
 H        -4.329557         0.747223         0.474842
 H        -3.228198         2.621528        -0.576614
 H        -2.723949         2.583178         1.185206
 H        -1.071432         1.343744        -1.001245
 H        -0.483798         2.675381         0.074133
 H        -1.217426        -1.485074         0.317266
