19
Iteration:  3212
 O         0.585544         0.285905         0.615887
 C        -0.742790         0.661765         0.755458
 C        -1.362094         0.668976         2.258093
 C        -2.537971        -0.118511         1.671896
 C        -3.297187         0.762255         0.590653
 C        -2.655072         2.079957         0.307516
 C        -1.242252         1.835357        -0.080778
 O        -2.785002        -0.154059        -0.466026
 C        -1.782651        -0.546040         0.448768
 H         1.142729         0.857170         1.316143
 H        -0.700775        -0.052514         2.736707
 H        -1.451606         1.605495         2.753231
 H        -3.181261        -0.907942         2.170966
 H        -4.408170         0.649365         0.505829
 H        -3.239725         2.547183        -0.549845
 H        -2.922149         2.763444         1.139002
 H        -1.195321         1.435469        -1.125984
 H        -0.533034         2.672814         0.248891
 H        -1.255133        -1.487073         0.421043
