19
Iteration:    51
 O         0.688529         0.535725         0.740399
 C        -0.733956         0.636443         0.751909
 C        -1.249893         0.658323         2.183052
 C        -2.634148        -0.022049         1.721961
 C        -3.347562         0.764980         0.565413
 C        -2.628488         1.970143         0.300182
 C        -1.188146         1.766262        -0.165815
 O        -2.919107        -0.260271        -0.466246
 C        -1.817077        -0.556055         0.459656
 H         0.977786        -0.366668         1.198773
 H        -0.741141        -0.206659         2.739273
 H        -1.288415         1.676447         2.673438
 H        -3.331995        -0.581151         2.389080
 H        -4.433797         0.886106         0.554084
 H        -3.163940         2.642161        -0.479016
 H        -2.604098         2.636135         1.256000
 H        -1.020064         1.470532        -1.245283
 H        -0.589601         2.712004        -0.049767
 H        -1.302441        -1.567044         0.218107
