19
Iteration:  1332charge 0 multiplicity 1
 O         0.599947         0.280508         0.535476
 C        -0.748998         0.614001         0.817061
 C        -1.329563         0.658770         2.239115
 C        -2.563199        -0.089610         1.679872
 C        -3.370812         0.741213         0.548599
 C        -2.664470         2.083772         0.234856
 C        -1.207020         1.880416         0.002110
 O        -2.816667        -0.261086        -0.436661
 C        -1.726322        -0.487040         0.458254
 H         1.165371         0.827799         1.192959
 H        -0.791207        -0.003890         2.884926
 H        -1.514669         1.576602         2.855213
 H        -3.118162        -0.721775         2.441203
 H        -4.443380         0.762642         0.457764
 H        -3.062722         2.652440        -0.624141
 H        -2.932948         2.852080         1.065915
 H        -0.934342         1.877580        -1.049576
 H        -0.703951         2.766498         0.454691
 H        -1.249216        -1.410341         0.410539
