19
Iteration:  4067charge 0 multiplicity 1
 O         0.661478         0.364256         0.721021
 C        -0.696221         0.546053         0.750521
 C        -1.291914         0.602074         2.174397
 C        -2.533599        -0.007507         1.714410
 C        -3.289019         0.753799         0.578998
 C        -2.727593         2.084745         0.228245
 C        -1.159241         1.916632         0.008369
 O        -2.892761        -0.274833        -0.483925
 C        -1.878472        -0.593948         0.465818
 H         1.029200         1.090831         0.286374
 H        -0.558238         0.032007         2.786455
 H        -1.371063         1.529537         2.688319
 H        -3.122763        -0.737765         2.251783
 H        -4.367810         0.833712         0.564965
 H        -3.275980         2.734852        -0.547708
 H        -2.934570         2.839370         0.967389
 H        -1.007668         1.789336        -1.140612
 H        -0.506776         2.848406         0.357691
 H        -1.647437        -1.704056         0.384198
