19
Iteration:  1767charge 0 multiplicity 1
 O         0.665353         0.220386         0.629761
 C        -0.719243         0.659731         0.793930
 C        -1.308123         0.681247         2.214806
 C        -2.542124        -0.039217         1.643152
 C        -3.339219         0.657840         0.526296
 C        -2.712209         2.058312         0.234174
 C        -1.163061         1.955560         0.134126
 O        -2.886710        -0.212764        -0.531819
 C        -1.818318        -0.553376         0.497159
 H         1.190303         0.976435         0.314591
 H        -0.725588         0.118086         2.908961
 H        -1.463595         1.600326         2.595299
 H        -3.089449        -0.729077         2.337496
 H        -4.437483         0.619995         0.727435
 H        -3.251386         2.488816        -0.639624
 H        -2.960634         2.721860         1.100982
 H        -0.857816         1.963336        -0.969787
 H        -0.706463         2.938903         0.577471
 H        -1.305888        -1.553066         0.390557
