19
Iteration:  3366charge 0 multiplicity 1
 O         0.698906         0.319373         0.680442
 C        -0.723420         0.673433         0.758029
 C        -1.291926         0.584438         2.253622
 C        -2.554402        -0.068026         1.677942
 C        -3.330307         0.774189         0.578286
 C        -2.709681         2.112356         0.280641
 C        -1.272625         1.810360        -0.105991
 O        -2.884853        -0.160174        -0.509157
 C        -1.753483        -0.626079         0.492465
 H         1.021594         1.143641         1.150727
 H        -0.734656        -0.042363         2.948505
 H        -1.400709         1.472921         2.816500
 H        -3.156048        -0.746838         2.245736
 H        -4.440016         0.828278         0.581386
 H        -3.101532         2.608994        -0.636583
 H        -2.793194         2.704555         1.189637
 H        -0.944174         1.463174        -1.123978
 H        -0.788890         2.844303         0.024207
 H        -1.432706        -1.637358         0.277718
