19
Iteration:  4678charge 0 multiplicity 1
 O         0.679284         0.418105         0.722028
 C        -0.717887         0.573924         0.814465
 C        -1.312531         0.570430         2.208884
 C        -2.564857        -0.026054         1.611308
 C        -3.278477         0.816440         0.554819
 C        -2.727286         2.116974         0.169014
 C        -1.174048         1.883855         0.046620
 O        -2.878649        -0.256092        -0.426564
 C        -1.814405        -0.669400         0.442183
 H         0.972598         0.570910        -0.121629
 H        -0.688012        -0.199530         2.763365
 H        -1.532388         1.408098         2.876020
 H        -3.282769        -0.605669         2.241741
 H        -4.374198         0.939492         0.738987
 H        -3.069013         2.601915        -0.770364
 H        -2.911943         2.871863         1.030635
 H        -1.035937         1.965109        -0.968144
 H        -0.588423         2.667911         0.559098
 H        -1.599588        -1.690980         0.198081
