19
Iteration:  3514charge 0 multiplicity 1
 O         0.685806         0.235964         0.743029
 C        -0.722341         0.590614         0.776303
 C        -1.235510         0.725398         2.127570
 C        -2.555686        -0.025817         1.688035
 C        -3.311950         0.712577         0.517459
 C        -2.837956         2.146771         0.354613
 C        -1.220569         1.833479        -0.036524
 O        -2.892996        -0.204619        -0.502360
 C        -1.750181        -0.586130         0.457905
 H         1.352830         0.943421         0.561789
 H        -0.628688         0.125253         2.767289
 H        -1.317083         1.790744         2.504987
 H        -3.052193        -0.873614         2.291523
 H        -4.392635         0.761271         0.467776
 H        -3.247546         2.709968        -0.494470
 H        -2.793162         2.604334         1.348743
 H        -1.415874         1.679421        -1.086048
 H        -0.768618         2.809275         0.285337
 H        -1.189840        -1.504500         0.316996
