19
Iteration:  2964
 O         0.660588         0.184432         0.652749
 C        -0.742612         0.645434         0.770654
 C        -1.385824         0.813901         2.229962
 C        -2.524037        -0.097098         1.705245
 C        -3.370489         0.633485         0.655783
 C        -2.732529         2.117005         0.334628
 C        -1.145306         1.859679        -0.060077
 O        -2.829467        -0.214004        -0.534311
 C        -1.770896        -0.536373         0.434325
 H         1.230671         0.953202         0.472608
 H        -0.697762         0.443950         2.949159
 H        -1.566230         1.743586         2.679196
 H        -3.136106        -0.793918         2.151457
 H        -4.443775         0.681948         0.641096
 H        -3.285225         2.399130        -0.535856
 H        -2.872174         2.882664         1.137964
 H        -1.078026         1.872318        -1.165116
 H        -0.509265         2.771901         0.274744
 H        -1.256180        -1.408676         0.092528
