19
Iteration:   139charge 0 multiplicity 1
 O         0.645854         0.285828         0.564034
 C        -0.784365         0.582083         0.780730
 C        -1.294039         0.620349         2.254456
 C        -2.588958         0.057309         1.761051
 C        -3.291623         0.714328         0.460434
 C        -2.736874         2.141244         0.134434
 C        -1.215574         1.898608         0.115031
 O        -2.771506        -0.304117        -0.452584
 C        -1.787081        -0.571971         0.523206
 H         0.891689         0.946719        -0.133275
 H        -0.695990        -0.011626         3.003357
 H        -1.342078         1.594921         2.817489
 H        -3.327241        -0.435336         2.431937
 H        -4.365765         0.697884         0.511170
 H        -3.234543         2.639084        -0.756074
 H        -2.983688         2.807780         1.096964
 H        -0.942526         1.863388        -0.964554
 H        -0.735825         2.785802         0.714722
 H        -1.244648        -1.592123         0.577623
