19
Iteration:  3466
 O         0.561612         0.338516         0.482961
 C        -0.772168         0.612268         0.843689
 C        -1.325781         0.599048         2.320106
 C        -2.555222        -0.142854         1.723604
 C        -3.339427         0.751680         0.573160
 C        -2.671051         2.196778         0.143107
 C        -1.173490         1.902552         0.054870
 O        -2.771424        -0.269545        -0.441546
 C        -1.783758        -0.567458         0.515065
 H         0.939918         1.185900         0.513001
 H        -0.622228        -0.034035         2.909283
 H        -1.541799         1.504078         2.829438
 H        -3.220487        -0.621892         2.378623
 H        -4.436805         0.754944         0.340874
 H        -3.047090         2.425003        -0.849776
 H        -2.795426         2.974336         0.906653
 H        -1.114891         1.674139        -1.044819
 H        -0.443856         2.649485         0.470402
 H        -1.286946        -1.528887         0.238398
