19
Iteration:  1575
 O         0.540920         0.307246         0.425726
 C        -0.693399         0.611261         0.837712
 C        -1.376390         0.634955         2.293032
 C        -2.616841        -0.007226         1.648402
 C        -3.343293         0.737046         0.497862
 C        -2.652062         2.088442         0.215711
 C        -1.139379         1.966535         0.164546
 O        -2.762520        -0.312223        -0.446761
 C        -1.782795        -0.594033         0.554082
 H         1.138742         1.015006         0.217304
 H        -0.923960        -0.110069         2.936572
 H        -1.449562         1.597822         2.875015
 H        -3.212129        -0.670720         2.262606
 H        -4.415413         0.835110         0.581242
 H        -2.780798         2.444352        -0.817583
 H        -3.070340         2.744220         1.011259
 H        -0.980546         1.929172        -0.944623
 H        -0.577725         2.892820         0.619395
 H        -1.310228        -1.533296         0.492391
