19
Iteration:  3217
 O         0.592313         0.326250         0.611859
 C        -0.755540         0.676323         0.756501
 C        -1.375321         0.659512         2.290721
 C        -2.549844        -0.112002         1.681423
 C        -3.309667         0.738184         0.543766
 C        -2.608183         2.068751         0.336982
 C        -1.238251         1.823042        -0.089511
 O        -2.798563        -0.156175        -0.469896
 C        -1.787653        -0.569300         0.461181
 H         1.084751         0.786688         1.238046
 H        -0.657206        -0.086348         2.696309
 H        -1.490168         1.601330         2.904237
 H        -3.144819        -0.852169         2.182323
 H        -4.396341         0.696310         0.574195
 H        -3.201590         2.423312        -0.484513
 H        -2.622132         2.901970         1.075058
 H        -1.146881         1.599261        -1.148177
 H        -0.648054         2.705233         0.037573
 H        -1.361280        -1.592987         0.315284
