19
Iteration:  4622charge 0 multiplicity 1
 O         0.688676         0.282591         0.671641
 C        -0.751657         0.582578         0.786802
 C        -1.406382         0.732900         2.292995
 C        -2.589391        -0.120484         1.637727
 C        -3.331764         0.716881         0.546214
 C        -2.692991         2.156912         0.329762
 C        -1.180965         1.919397        -0.017800
 O        -2.804710        -0.267024        -0.518181
 C        -1.734070        -0.548426         0.451768
 H         0.820316         0.230715        -0.338397
 H        -0.821925         0.191776         3.148101
 H        -1.704058         1.793912         2.497195
 H        -3.292339        -0.774437         2.305267
 H        -4.455299         0.772380         0.709141
 H        -3.108050         2.930053        -0.383645
 H        -2.848127         2.721627         1.363110
 H        -1.284169         1.733787        -1.092729
 H        -0.337108         2.649822         0.228860
 H        -1.237127        -1.464421         0.217980
