19
Iteration:  2528
 O         0.615664         0.289644         0.850218
 C        -0.759945         0.674599         0.650674
 C        -1.279672         0.674702         2.133414
 C        -2.477533         0.009610         1.694289
 C        -3.280502         0.686163         0.617437
 C        -2.719320         2.106764         0.322585
 C        -1.231218         1.907992        -0.142151
 O        -2.944052        -0.281195        -0.500692
 C        -1.686324        -0.551350         0.482948
 H         0.991334         0.312192         0.019613
 H        -0.649016        -0.067350         2.613843
 H        -1.450110         1.637596         2.594987
 H        -2.993889        -0.683812         2.513145
 H        -4.344887         0.598997         0.906597
 H        -3.397200         2.623463        -0.339420
 H        -2.996995         2.676013         1.245449
 H        -1.137373         1.804884        -1.182995
 H        -0.671106         2.690055         0.122918
 H        -1.259141        -1.512751         0.245264
