19
Iteration:  4062charge 0 multiplicity 1
 O         0.616777         0.345130         0.697662
 C        -0.676812         0.586355         0.773505
 C        -1.317159         0.639569         2.161232
 C        -2.542193        -0.031771         1.723730
 C        -3.258453         0.754821         0.521704
 C        -2.702266         2.112147         0.260528
 C        -1.145460         1.890550         0.025439
 O        -2.903383        -0.273263        -0.491101
 C        -1.857815        -0.624340         0.469979
 H         1.063261         1.094085         0.172755
 H        -0.646360         0.084598         2.829095
 H        -1.270920         1.667492         2.647466
 H        -3.115484        -0.792016         2.278570
 H        -4.373320         0.856754         0.729657
 H        -3.157374         2.505953        -0.644244
 H        -2.954948         2.794468         1.138909
 H        -1.148277         1.894980        -1.042017
 H        -0.687850         2.760030         0.364015
 H        -1.498093        -1.635108         0.426333
