19
Iteration:  4509
 O         0.689561         0.259870         0.752374
 C        -0.696217         0.586668         0.790811
 C        -1.317466         0.748435         2.190798
 C        -2.542497        -0.011676         1.623644
 C        -3.320974         0.700200         0.494006
 C        -2.746502         2.157806         0.429387
 C        -1.233044         1.862242        -0.048863
 O        -2.831220        -0.276263        -0.494810
 C        -1.777574        -0.554260         0.395564
 H         0.920478         0.305610        -0.181659
 H        -0.964774         0.221045         3.118239
 H        -1.447228         1.800427         2.636222
 H        -3.310717        -0.513968         2.224402
 H        -4.408682         0.682735         0.522917
 H        -3.371581         2.680070        -0.357255
 H        -2.837251         2.528711         1.458180
 H        -1.144768         1.880146        -1.100048
 H        -0.600016         2.683078         0.292562
 H        -1.327489        -1.567058         0.201522
