19
Iteration:  3547charge 0 multiplicity 1
 O         0.568140         0.278274         0.518798
 C        -0.726951         0.681617         0.822835
 C        -1.352310         0.698316         2.258113
 C        -2.637539        -0.096147         1.764508
 C        -3.302094         0.722361         0.553017
 C        -2.673534         2.075139         0.273973
 C        -1.162442         1.823972        -0.015664
 O        -2.776139        -0.202971        -0.517485
 C        -1.771094        -0.560733         0.550803
 H         0.985268         1.103846         0.437943
 H        -0.684629         0.087288         2.826026
 H        -1.469499         1.679669         2.798841
 H        -3.209880        -0.849952         2.419766
 H        -4.327281         0.673697         0.260847
 H        -3.255157         2.669713        -0.413405
 H        -2.808270         2.709487         1.173633
 H        -1.058820         1.597980        -1.093317
 H        -0.516019         2.730619         0.237076
 H        -1.193729        -1.430540         0.276267
