19
Iteration:  3497charge 0 multiplicity 1
 O         0.675084         0.251681         0.701758
 C        -0.696069         0.657861         0.737339
 C        -1.293366         0.687413         2.236976
 C        -2.509502        -0.079965         1.695798
 C        -3.427365         0.707123         0.599392
 C        -2.680855         2.041854         0.264722
 C        -1.217817         1.893721        -0.033951
 O        -2.849790        -0.203262        -0.484012
 C        -1.811017        -0.520248         0.410794
 H         1.064112         1.193811         0.537270
 H        -0.657484        -0.003350         2.849642
 H        -1.440245         1.658940         2.734399
 H        -3.107161        -0.590978         2.429837
 H        -4.538145         0.579871         0.608565
 H        -3.299465         2.566168        -0.523499
 H        -2.919128         2.763036         1.060254
 H        -1.029602         1.595010        -1.099330
 H        -0.526176         2.664904         0.279994
 H        -1.493728        -1.544072         0.144317
