19
Iteration:  2459charge 0 multiplicity 1
 O         0.621039         0.399749         0.537723
 C        -0.765239         0.593552         0.775375
 C        -1.230218         0.616023         2.244676
 C        -2.578990         0.025847         1.795209
 C        -3.318117         0.730544         0.458186
 C        -2.765548         2.079188         0.157912
 C        -1.188044         1.896068         0.153221
 O        -2.798966        -0.285011        -0.447822
 C        -1.802271        -0.620152         0.539705
 H         0.717211         0.621117        -0.469410
 H        -0.754945        -0.237895         2.788620
 H        -1.209897         1.594029         2.672101
 H        -3.309239        -0.416818         2.548412
 H        -4.386636         0.605077         0.463845
 H        -3.229214         2.556677        -0.719035
 H        -2.875415         2.848327         0.968950
 H        -0.822068         1.867870        -0.872591
 H        -0.584243         2.786204         0.511960
 H        -1.293245        -1.599271         0.617245
