19
Iteration:  4952
 O         0.653302         0.383937         0.688557
 C        -0.720818         0.627762         0.784589
 C        -1.362675         0.662863         2.227876
 C        -2.575365        -0.116169         1.699634
 C        -3.342570         0.725797         0.536238
 C        -2.691393         2.109759         0.307180
 C        -1.090142         1.922144         0.033366
 O        -2.851179        -0.237202        -0.502213
 C        -1.839897        -0.666615         0.415267
 H         0.864547         0.651658        -0.311408
 H        -0.715355         0.029438         2.847443
 H        -1.525434         1.672212         2.664256
 H        -3.361978        -0.660193         2.193871
 H        -4.399853         0.760260         0.761639
 H        -3.125908         2.588106        -0.567478
 H        -2.718967         2.930520         1.026822
 H        -0.838209         1.645937        -1.013825
 H        -0.438307         2.790003         0.452966
 H        -1.476212        -1.628837         0.356457
