19
Iteration:   401
 O         0.684431         0.383773         0.572472
 C        -0.764301         0.574811         0.730815
 C        -1.268150         0.697481         2.266682
 C        -2.570951         0.015490         1.685630
 C        -3.308453         0.757999         0.500548
 C        -2.716369         2.070238         0.059024
 C        -1.245226         1.936919         0.192797
 O        -2.820504        -0.307133        -0.394002
 C        -1.792638        -0.588324         0.525889
 H         0.806821        -0.657045         0.389267
 H        -0.823569        -0.097236         2.848071
 H        -1.365420         1.734075         2.614780
 H        -3.310365        -0.541905         2.227840
 H        -4.430072         0.748788         0.718476
 H        -2.909661         2.299482        -1.038433
 H        -3.136957         2.833900         0.743537
 H        -0.810765         2.215728        -0.725357
 H        -0.874310         2.623215         0.890686
 H        -1.347298        -1.639416         0.376481
