19
Iteration:  1016charge 0 multiplicity 1
 O         0.560506         0.372459         0.414204
 C        -0.747609         0.559426         0.790536
 C        -1.259538         0.642033         2.289561
 C        -2.652286         0.028400         1.740092
 C        -3.318146         0.747358         0.556887
 C        -2.684799         2.053507         0.048428
 C        -1.163314         1.885401         0.228587
 O        -2.780878        -0.297845        -0.386678
 C        -1.761766        -0.545455         0.534733
 H         1.020297         1.290259         0.275797
 H        -0.893458        -0.167446         2.926585
 H        -1.347862         1.609979         2.776913
 H        -3.225448        -0.770159         2.337906
 H        -4.451580         0.688520         0.387573
 H        -2.971728         2.119071        -1.073371
 H        -3.130757         2.977021         0.579706
 H        -0.690562         1.910333        -0.763121
 H        -0.673272         2.664242         0.805164
 H        -1.436061        -1.650630         0.477987
