19
Iteration:   270
 O         0.507239         0.290251         0.398109
 C        -0.794150         0.649803         0.860166
 C        -1.252791         0.623669         2.333501
 C        -2.616059         0.046555         1.717092
 C        -3.279921         0.670848         0.448673
 C        -2.656250         2.041262         0.042253
 C        -1.159767         1.993140         0.133290
 O        -2.763539        -0.291789        -0.396588
 C        -1.777214        -0.594094         0.595036
 H         0.901938         1.156583         0.503665
 H        -0.938240        -0.175568         3.095360
 H        -1.325749         1.515322         3.019360
 H        -3.285115        -0.514882         2.358194
 H        -4.412812         0.627100         0.553449
 H        -3.020557         2.444742        -0.943053
 H        -2.929323         2.825201         0.728493
 H        -0.552963         1.860188        -0.809739
 H        -0.904022         3.079854         0.692547
 H        -1.374669        -1.659634         0.646469
