19
Iteration:  3961charge 0 multiplicity 1
 O         0.740655         0.411304         0.716422
 C        -0.698409         0.664168         0.817629
 C        -1.350242         0.627519         2.202404
 C        -2.529770        -0.094952         1.645897
 C        -3.334883         0.697388         0.612179
 C        -2.686581         2.116569         0.235368
 C        -1.109444         1.865744        -0.016532
 O        -2.974133        -0.277033        -0.428241
 C        -1.870379        -0.586951         0.388803
 H         0.949458         0.467652        -0.160676
 H        -1.010783        -0.092074         2.962206
 H        -1.638676         1.669179         2.674693
 H        -3.236579        -0.541181         2.413989
 H        -4.415826         0.943275         0.623258
 H        -3.133653         2.472809        -0.721603
 H        -2.655287         2.885138         1.064217
 H        -0.846018         1.621874        -1.032605
 H        -0.447315         2.723742         0.238940
 H        -1.250087        -1.458759         0.142744
