19
Iteration:  2327
 O         0.604458         0.338903         0.572135
 C        -0.722871         0.629731         0.742875
 C        -1.292073         0.691850         2.300445
 C        -2.546463        -0.095003         1.751473
 C        -3.333262         0.735548         0.582607
 C        -2.680556         2.016374         0.133555
 C        -1.216066         1.934812         0.087669
 O        -2.822881        -0.207097        -0.426437
 C        -1.774912        -0.666122         0.446009
 H         0.919933         0.722210        -0.341199
 H        -0.591137         0.342027         3.118224
 H        -1.534656         1.713816         2.667505
 H        -3.252234        -0.658494         2.479873
 H        -4.414606         0.821324         0.767273
 H        -3.187141         2.185768        -0.877450
 H        -2.932690         2.880905         0.891254
 H        -0.974096         2.177123        -0.928308
 H        -0.680142         2.696724         0.717853
 H        -1.437902        -1.646652         0.078515
