19
Iteration:  4780charge 0 multiplicity 1
 O         0.727556         0.459274         0.734013
 C        -0.783287         0.595218         0.801884
 C        -1.402968         0.620547         2.238916
 C        -2.557515        -0.142723         1.612416
 C        -3.311947         0.804825         0.556449
 C        -2.649855         2.125840         0.336290
 C        -1.095930         1.842881         0.009272
 O        -2.918751        -0.255003        -0.497212
 C        -1.823969        -0.606879         0.408539
 H         1.085061         0.257969        -0.211581
 H        -0.855068         0.062908         2.940430
 H        -1.503771         1.631676         2.620361
 H        -3.272580        -0.638521         2.253672
 H        -4.399184         0.889283         0.551814
 H        -3.049274         2.606184        -0.560724
 H        -2.798941         2.745399         1.220097
 H        -1.229884         1.590181        -1.016753
 H        -0.461061         2.655004         0.055386
 H        -1.325919        -1.626432         0.238357
