19
Iteration:    57
 O         0.701655         0.484999         0.718754
 C        -0.722576         0.602355         0.754649
 C        -1.263622         0.654042         2.165980
 C        -2.605038         0.001312         1.678396
 C        -3.320226         0.748726         0.576197
 C        -2.677800         2.069710         0.252734
 C        -1.176524         1.789863        -0.070917
 O        -2.916006        -0.315044        -0.446566
 C        -1.817742        -0.546616         0.456031
 H         0.987104        -0.186849         1.269973
 H        -0.857539        -0.156541         2.712415
 H        -1.194044         1.603070         2.657918
 H        -3.263686        -0.533305         2.353310
 H        -4.414392         0.935371         0.642646
 H        -3.297869         2.532734        -0.550180
 H        -2.809331         2.681290         1.097132
 H        -1.167628         1.624711        -1.185955
 H        -0.624541         2.725679         0.051215
 H        -1.300939        -1.457300         0.276567
