19
Iteration:  1937
 O         0.692389         0.476103         0.765329
 C        -0.690333         0.531306         0.688234
 C        -1.295101         0.627934         2.167189
 C        -2.593768        -0.009464         1.713257
 C        -3.347773         0.738638         0.574198
 C        -2.686350         2.114997         0.356549
 C        -1.179049         1.808628        -0.020000
 O        -2.835323        -0.269384        -0.523282
 C        -1.882958        -0.583011         0.460666
 H         1.070579         0.895653         0.002829
 H        -0.731979        -0.171314         2.775456
 H        -1.267393         1.706639         2.548896
 H        -3.170152        -0.711703         2.360891
 H        -4.451336         0.698724         0.610224
 H        -3.116265         2.667963        -0.608478
 H        -2.920241         2.788159         1.225004
 H        -1.332882         1.463390        -1.102329
 H        -0.479968         2.605411        -0.066096
 H        -1.582895        -1.680863         0.543488
