19
Iteration:  3372
 O         0.643450         0.322249         0.675725
 C        -0.729603         0.646748         0.802626
 C        -1.281720         0.599499         2.208067
 C        -2.577949        -0.105081         1.672220
 C        -3.340950         0.709591         0.578369
 C        -2.682997         2.146761         0.272591
 C        -1.198575         1.831531        -0.136694
 O        -2.887372        -0.143351        -0.458975
 C        -1.739996        -0.553130         0.448475
 H         1.115946         1.130244         1.169770
 H        -0.764059        -0.026035         2.966271
 H        -1.536013         1.537641         2.851183
 H        -3.207571        -0.902444         2.203816
 H        -4.422746         0.637413         0.720156
 H        -3.213374         2.501501        -0.624634
 H        -2.762039         2.747396         1.202015
 H        -1.052716         1.367375        -1.099996
 H        -0.687378         2.745390         0.009494
 H        -1.321712        -1.593557         0.418698
