19
Iteration:  1071
 O         0.595182         0.220706         0.717649
 C        -0.705555         0.659714         0.714527
 C        -1.354033         0.829469         2.183409
 C        -2.519265        -0.094090         1.676029
 C        -3.309494         0.698240         0.618464
 C        -2.732662         2.022734         0.345809
 C        -1.261511         1.770009        -0.169084
 O        -2.794669        -0.141560        -0.481788
 C        -1.707765        -0.527348         0.476297
 H         1.344905         0.950077         0.918973
 H        -0.857431         0.229075         2.968042
 H        -1.681431         1.780490         2.609378
 H        -3.095837        -0.754049         2.391458
 H        -4.448991         0.658977         0.801046
 H        -3.287623         2.693253        -0.360357
 H        -2.804674         2.541087         1.255699
 H        -1.347556         1.480856        -1.185696
 H        -0.675542         2.686837        -0.014459
 H        -1.244089        -1.525017         0.131772
