19
Iteration:  4824charge 0 multiplicity 1
 O         0.621207         0.254459         0.726735
 C        -0.697706         0.637271         0.824142
 C        -1.230222         0.614104         2.196957
 C        -2.557966         0.026095         1.696699
 C        -3.362192         0.696338         0.571428
 C        -2.750039         2.123312         0.218677
 C        -1.260115         1.852939         0.106048
 O        -2.807119        -0.216746        -0.524617
 C        -1.799271        -0.487065         0.394164
 H         1.105557         0.566300        -0.061748
 H        -0.662583        -0.122956         2.700740
 H        -1.266059         1.462607         2.884311
 H        -3.236085        -0.688299         2.169791
 H        -4.445034         0.814268         0.607696
 H        -3.028024         2.343119        -0.826218
 H        -3.089430         2.906995         0.897599
 H        -0.987534         1.717619        -0.904932
 H        -0.662598         2.650352         0.379715
 H        -1.240893        -1.493213         0.266192
