19
Iteration:  2012
 O         0.605324         0.362320         0.549861
 C        -0.758523         0.540434         0.706693
 C        -1.305194         0.669266         2.267113
 C        -2.564162         0.043171         1.686434
 C        -3.332719         0.717950         0.463348
 C        -2.764804         2.100378         0.241232
 C        -1.194808         1.917531         0.100644
 O        -2.750777        -0.280477        -0.424972
 C        -1.759370        -0.544030         0.575187
 H         0.886389        -0.176993        -0.329977
 H        -0.858088         0.050073         3.052202
 H        -1.409822         1.644824         2.546698
 H        -3.149464        -0.625343         2.433505
 H        -4.456291         0.706790         0.415260
 H        -3.186002         2.383639        -0.737382
 H        -3.023028         2.699010         1.117510
 H        -0.812383         2.041999        -0.981008
 H        -0.602121         2.532105         0.761291
 H        -1.281129        -1.581807         0.673215
