19
Iteration:   531
 O         0.609869         0.311015         0.729634
 C        -0.778493         0.645493         0.753885
 C        -1.317402         0.684043         2.223331
 C        -2.555385        -0.059526         1.704131
 C        -3.312891         0.718004         0.602207
 C        -2.715228         2.071084         0.103509
 C        -1.118671         1.921795         0.019685
 O        -2.860684        -0.264619        -0.414621
 C        -1.745388        -0.557664         0.462621
 H         0.806047         0.384638        -0.183154
 H        -0.641773         0.080045         2.815418
 H        -1.447823         1.651180         2.703751
 H        -3.256404        -0.636250         2.348416
 H        -4.438368         0.732473         0.754021
 H        -3.205100         2.319813        -0.881648
 H        -2.956311         2.875153         0.795729
 H        -0.784885         1.831103        -1.118782
 H        -0.592542         2.782530         0.428770
 H        -1.324372        -1.527873         0.311880
