19
Iteration:   968
 O         0.589136         0.201256         0.657683
 C        -0.808208         0.667199         0.744141
 C        -1.260506         0.656822         2.181761
 C        -2.494557        -0.010993         1.666579
 C        -3.375996         0.730036         0.529884
 C        -2.759650         2.092145         0.209686
 C        -1.197038         1.977991         0.071216
 O        -2.838114        -0.315327        -0.436909
 C        -1.699855        -0.538981         0.518564
 H         1.088335         0.894095         0.368123
 H        -0.560451        -0.061041         2.731422
 H        -1.307489         1.656265         2.774041
 H        -3.174744        -0.648018         2.441103
 H        -4.468934         0.600542         0.534944
 H        -3.135949         2.388612        -0.756485
 H        -3.027848         2.829828         0.856358
 H        -0.811843         2.090828        -1.022593
 H        -0.699909         2.922102         0.484567
 H        -1.148030        -1.432445         0.433685
