19
Iteration:   614charge 0 multiplicity 1
 O         0.670620         0.429762         0.755307
 C        -0.738354         0.587055         0.787779
 C        -1.382192         0.744202         2.252650
 C        -2.548389        -0.083628         1.728844
 C        -3.320290         0.710506         0.545745
 C        -2.622015         2.083763         0.234937
 C        -1.186488         1.808898        -0.134272
 O        -2.859417        -0.248781        -0.474527
 C        -1.816231        -0.609928         0.478551
 H         0.888470         0.477659        -0.261096
 H        -0.925421         0.083656         3.059401
 H        -1.537380         1.782642         2.666134
 H        -3.134938        -0.705040         2.470364
 H        -4.367005         0.840918         0.618946
 H        -3.178702         2.648495        -0.572594
 H        -2.677096         2.806890         1.188841
 H        -1.139917         1.593370        -1.178435
 H        -0.528923         2.667386         0.023536
 H        -1.384983        -1.666438         0.206420
