19
Iteration:  4502
 O         0.696686         0.223467         0.773366
 C        -0.701597         0.569893         0.815397
 C        -1.292935         0.761337         2.206975
 C        -2.510572         0.034456         1.648590
 C        -3.347410         0.724501         0.491024
 C        -2.726965         2.103253         0.398591
 C        -1.288944         1.878742        -0.032488
 O        -2.818491        -0.264090        -0.530724
 C        -1.774872        -0.526628         0.409493
 H         0.874188         0.140243        -0.264173
 H        -0.895642        -0.001719         2.856638
 H        -1.547464         1.720722         2.496902
 H        -3.116548        -0.719875         2.172610
 H        -4.440923         0.556141         0.630472
 H        -3.186780         2.764356        -0.326943
 H        -2.936628         2.718565         1.321844
 H        -1.402779         1.838380        -1.149720
 H        -0.791107         2.832359         0.333460
 H        -1.255999        -1.432714         0.239253
