19
Iteration:  1640
 O         0.595291         0.210328         0.705810
 C        -0.737356         0.677314         0.783434
 C        -1.283883         0.690833         2.290075
 C        -2.493393        -0.112775         1.685840
 C        -3.370736         0.731417         0.594596
 C        -2.705352         2.059984         0.264315
 C        -1.205216         1.876057        -0.094885
 O        -2.850361        -0.157541        -0.497528
 C        -1.735132        -0.534714         0.390503
 H         1.100720         0.956798         0.648395
 H        -0.882638         0.041348         3.047011
 H        -1.497693         1.711472         2.699429
 H        -3.055813        -0.783972         2.332042
 H        -4.450783         0.721246         0.641985
 H        -3.202677         2.434078        -0.656247
 H        -2.794203         2.745742         1.176408
 H        -1.185924         1.508635        -1.142104
 H        -0.733921         2.881592         0.269285
 H        -1.218709        -1.407158         0.122015
