19
Iteration:  1816
 O         0.589588         0.483545         0.735589
 C        -0.776916         0.629694         0.775613
 C        -1.352355         0.583087         2.337286
 C        -2.612677        -0.163081         1.698857
 C        -3.238062         0.781200         0.562099
 C        -2.571686         2.115484         0.347377
 C        -1.196817         1.780215        -0.167553
 O        -2.825462        -0.182529        -0.546015
 C        -1.812601        -0.645591         0.443541
 H         0.853995         0.785451        -0.213342
 H        -0.674884        -0.167590         2.862805
 H        -1.366941         1.614330         2.940762
 H        -3.292907        -0.694578         2.353491
 H        -4.322355         0.903361         0.554105
 H        -3.257295         2.748996        -0.254880
 H        -2.638386         2.721451         1.244128
 H        -1.215054         1.720348        -1.250767
 H        -0.515611         2.554112        -0.031665
 H        -1.438866        -1.656808         0.237434
