19
Iteration:  4805charge 0 multiplicity 1
 O         0.635851         0.370236         0.806728
 C        -0.777066         0.557364         0.764997
 C        -1.297241         0.586065         2.169972
 C        -2.534810        -0.118702         1.677658
 C        -3.322465         0.708642         0.571485
 C        -2.693918         2.094161         0.214168
 C        -1.121617         1.948500        -0.031591
 O        -2.889263        -0.161454        -0.470128
 C        -1.813342        -0.600543         0.426511
 H         1.054135         0.660756         0.035814
 H        -0.700640        -0.115991         2.758265
 H        -1.189161         1.564575         2.619871
 H        -3.211922        -0.601960         2.426999
 H        -4.433890         0.786164         0.594999
 H        -3.165636         2.521558        -0.677341
 H        -2.859430         2.738204         1.056915
 H        -0.883945         2.188472        -1.165025
 H        -0.646306         2.811264         0.517854
 H        -1.560921        -1.685744         0.371045
