19
Iteration:  4971
 O         0.716849         0.333213         0.625458
 C        -0.680457         0.557980         0.737390
 C        -1.343784         0.653521         2.234128
 C        -2.690040        -0.019447         1.650598
 C        -3.351177         0.768749         0.447219
 C        -2.694851         2.077134         0.301771
 C        -1.257270         1.861753         0.107094
 O        -2.798457        -0.244557        -0.475230
 C        -1.739266        -0.502106         0.520196
 H         0.950459         0.372865        -0.395940
 H        -1.014388        -0.172734         2.901304
 H        -1.291265         1.587893         2.721560
 H        -3.184366        -0.584081         2.425999
 H        -4.444900         0.817713         0.400783
 H        -3.086937         2.722068        -0.467526
 H        -2.913514         2.431317         1.311341
 H        -1.069537         1.844025        -1.015522
 H        -0.608650         2.632259         0.650712
 H        -1.321596        -1.523736         0.519904
