19
Iteration:  3089charge 0 multiplicity 1
 O         0.639631         0.208215         0.754336
 C        -0.735684         0.673536         0.746558
 C        -1.267392         0.681879         2.222017
 C        -2.550286        -0.059276         1.646418
 C        -3.321713         0.698835         0.555564
 C        -2.728853         2.118126         0.323531
 C        -1.235088         1.890518        -0.100861
 O        -2.829571        -0.216857        -0.493295
 C        -1.766626        -0.547171         0.405271
 H         1.236889         0.993106         0.686221
 H        -0.806043         0.251637         3.059833
 H        -1.578466         1.678444         2.492446
 H        -3.162992        -0.702148         2.429079
 H        -4.379037         0.657752         0.809868
 H        -3.320621         2.635178        -0.477924
 H        -2.751592         2.724597         1.216122
 H        -1.283742         1.609086        -1.151870
 H        -0.607190         2.735381         0.252015
 H        -1.414051        -1.612399         0.359854
