19
Iteration:  1374
 O         0.690861         0.438955         0.753261
 C        -0.738586         0.577917         0.718759
 C        -1.268923         0.540667         2.208332
 C        -2.547078        -0.048505         1.677373
 C        -3.387957         0.805569         0.517049
 C        -2.680492         2.153012         0.307258
 C        -1.273924         1.652450        -0.103898
 O        -2.854417        -0.146985        -0.473104
 C        -1.777348        -0.626356         0.505519
 H         1.062692         1.403043         0.859146
 H        -0.693625        -0.165923         2.884583
 H        -1.396360         1.675654         2.692923
 H        -3.252704        -0.710876         2.214611
 H        -4.463683         0.695010         0.654294
 H        -3.160312         2.774277        -0.384885
 H        -2.651155         2.919665         1.077461
 H        -1.178776         1.395855        -1.192946
 H        -0.591859         2.524974        -0.000268
 H        -1.341605        -1.526181         0.187231
