19
Iteration:  4245
 O         0.703371         0.268862         0.684628
 C        -0.642398         0.577319         0.677929
 C        -1.311375         0.715600         2.193248
 C        -2.623089         0.046069         1.659968
 C        -3.361209         0.694497         0.501069
 C        -2.788176         2.071931         0.392221
 C        -1.234443         1.847566        -0.003699
 O        -2.805620        -0.270461        -0.484180
 C        -1.788621        -0.504616         0.463208
 H         1.164000         1.012428         0.243950
 H        -0.717724        -0.047429         2.689882
 H        -1.522767         1.549960         2.875653
 H        -3.250916        -0.572830         2.386193
 H        -4.427399         0.724637         0.636963
 H        -3.200108         2.773968        -0.403183
 H        -2.647654         2.514667         1.388551
 H        -1.198948         1.795573        -1.099613
 H        -0.543248         2.766080         0.323704
 H        -1.402045        -1.561932         0.577168
