19
Iteration:  2346
 O         0.643442         0.393881         0.602507
 C        -0.777635         0.605900         0.797213
 C        -1.268183         0.612297         2.164229
 C        -2.565225         0.002984         1.700072
 C        -3.336897         0.731255         0.543228
 C        -2.751689         2.127540         0.254406
 C        -1.183499         1.826434         0.062295
 O        -2.817988        -0.284535        -0.468619
 C        -1.778466        -0.544938         0.572863
 H         0.829261         0.858058        -0.233253
 H        -0.816767        -0.182924         2.703661
 H        -1.215354         1.553560         2.717459
 H        -3.141166        -0.640900         2.214392
 H        -4.396360         0.515869         0.640127
 H        -3.200566         2.481393        -0.730504
 H        -2.856013         2.693812         1.192746
 H        -0.961285         1.670284        -1.044066
 H        -0.544722         2.816697         0.145714
 H        -1.341491        -1.536379         0.562824
