19
Iteration:   978
 O         0.578248         0.188738         0.616175
 C        -0.720115         0.663279         0.749025
 C        -1.262342         0.657488         2.250535
 C        -2.518198        -0.015246         1.716464
 C        -3.305712         0.717777         0.530984
 C        -2.815139         2.086415         0.097961
 C        -1.204658         2.028298         0.109350
 O        -2.801710        -0.321191        -0.395817
 C        -1.776358        -0.512263         0.463736
 H         1.182014         0.796377         0.286813
 H        -0.733686        -0.183659         2.790064
 H        -1.154304         1.682665         2.760462
 H        -3.191845        -0.737820         2.302699
 H        -4.360245         0.784513         0.707673
 H        -3.149751         2.288695        -0.873861
 H        -3.220114         2.813691         0.728658
 H        -0.898309         2.133358        -0.981493
 H        -0.793885         2.758105         0.861727
 H        -1.251771        -1.417414         0.313998
