19
Iteration:  3363charge 0 multiplicity 1
 O         0.713624         0.324260         0.679600
 C        -0.721946         0.659449         0.746976
 C        -1.303537         0.584132         2.277036
 C        -2.535602        -0.048855         1.673008
 C        -3.330723         0.797462         0.572741
 C        -2.723013         2.082153         0.277408
 C        -1.283530         1.811104        -0.083793
 O        -2.873136        -0.175240        -0.523609
 C        -1.775487        -0.639026         0.497822
 H         1.110602         1.172767         1.158065
 H        -0.699345        -0.116272         2.849543
 H        -1.351306         1.567150         2.798202
 H        -3.192844        -0.705674         2.344340
 H        -4.385797         0.905339         0.545063
 H        -3.136763         2.685279        -0.577329
 H        -2.786744         2.747895         1.134560
 H        -1.038413         1.597928        -1.094536
 H        -0.786648         2.731196         0.033885
 H        -1.469933        -1.614899         0.212577
