19
Iteration:  1642charge 0 multiplicity 1
 O         0.582552         0.210618         0.709624
 C        -0.752101         0.673731         0.785393
 C        -1.296299         0.717946         2.291261
 C        -2.462212        -0.125050         1.656475
 C        -3.369843         0.746871         0.594334
 C        -2.708837         2.049825         0.288568
 C        -1.194179         1.875672        -0.112280
 O        -2.853957        -0.161536        -0.480179
 C        -1.739932        -0.533222         0.387392
 H         1.170710         1.037611         0.681292
 H        -0.941950         0.059085         3.066336
 H        -1.522628         1.567665         2.685550
 H        -3.020026        -0.774349         2.281271
 H        -4.463461         0.782074         0.589640
 H        -3.232529         2.447006        -0.636385
 H        -2.699437         2.676347         1.196424
 H        -1.160043         1.433771        -1.156343
 H        -0.711594         2.846441         0.259338
 H        -1.172717        -1.417458         0.106075
