19
Iteration:   712
 O         0.635194         0.320812         0.487540
 C        -0.726434         0.552833         0.858684
 C        -1.309943         0.733153         2.233171
 C        -2.588758         0.116115         1.701237
 C        -3.319026         0.716888         0.460977
 C        -2.764725         2.073125         0.153736
 C        -1.270830         1.884010         0.151832
 O        -2.671324        -0.270150        -0.479979
 C        -1.769579        -0.624870         0.607980
 H         0.558998        -0.312121        -0.333852
 H        -0.862997         0.103817         3.056592
 H        -1.164019         1.802576         2.620023
 H        -3.145089        -0.470775         2.423186
 H        -4.397431         0.639538         0.422566
 H        -3.217694         2.646761        -0.592901
 H        -3.169770         2.615012         1.087150
 H        -0.854090         2.033432        -0.806219
 H        -0.863284         2.794592         0.587230
 H        -1.681157        -1.761663         0.837002
