19
Iteration:  1595charge 0 multiplicity 1
 O         0.605046         0.343671         0.416212
 C        -0.766183         0.526070         0.873756
 C        -1.277434         0.618170         2.344427
 C        -2.608561         0.047471         1.743168
 C        -3.293798         0.703152         0.422029
 C        -2.708250         2.119552         0.156656
 C        -1.197723         1.956668         0.192709
 O        -2.805015        -0.315873        -0.495287
 C        -1.793747        -0.565647         0.536874
 H         1.020062         1.099385         0.157843
 H        -0.763974        -0.061841         2.974385
 H        -1.250646         1.514261         2.730671
 H        -3.407262        -0.478879         2.341622
 H        -4.377248         0.743751         0.332407
 H        -3.007974         2.518854        -0.799998
 H        -2.832871         2.802846         1.044124
 H        -0.727157         1.811630        -0.768680
 H        -0.663329         2.616078         0.957450
 H        -1.419956        -1.566027         0.490683
