19
Iteration:  4558
 O         0.676695         0.372360         0.679691
 C        -0.737080         0.565531         0.871087
 C        -1.273002         0.488085         2.284003
 C        -2.535847         0.007933         1.721041
 C        -3.362982         0.784989         0.548447
 C        -2.749245         2.129700         0.056297
 C        -1.213033         1.880184         0.081717
 O        -2.861980        -0.140064        -0.489160
 C        -1.745394        -0.626726         0.480209
 H         0.924046         0.827619        -0.215590
 H        -0.773878        -0.256948         2.893146
 H        -1.293958         1.264135         2.985875
 H        -3.230358        -0.743819         2.113043
 H        -4.454197         0.690925         0.782868
 H        -3.088450         2.403157        -0.923649
 H        -3.063053         2.794046         0.884020
 H        -1.116610         1.571031        -1.008049
 H        -0.676852         2.862715         0.090541
 H        -1.237043        -1.564760         0.281534
