19
Iteration:  3707
 O         0.619464         0.372245         0.649753
 C        -0.732649         0.609132         0.793016
 C        -1.313572         0.588831         2.208485
 C        -2.595008        -0.020286         1.704604
 C        -3.336235         0.718621         0.543108
 C        -2.691496         2.026705         0.211511
 C        -1.099962         1.948262         0.061320
 O        -2.887265        -0.265544        -0.417067
 C        -1.747965        -0.513632         0.425959
 H         0.809104         0.672746        -0.296162
 H        -0.756987        -0.009428         2.972912
 H        -1.286316         1.633511         2.545457
 H        -3.049820        -0.634126         2.416629
 H        -4.430544         0.751196         0.453345
 H        -3.104958         2.289650        -0.786087
 H        -3.102326         2.728609         0.991140
 H        -0.866074         1.795670        -0.988201
 H        -0.621617         2.687190         0.643581
 H        -1.479005        -1.597796         0.391598
