19
Iteration:  3711charge 0 multiplicity 1
 O         0.596986         0.383150         0.638649
 C        -0.746871         0.610316         0.804238
 C        -1.307572         0.606805         2.215080
 C        -2.559031        -0.032129         1.725195
 C        -3.339160         0.718391         0.534471
 C        -2.650534         2.004634         0.202149
 C        -1.110681         1.951251         0.075397
 O        -2.888489        -0.246736        -0.430212
 C        -1.776987        -0.537634         0.439333
 H         0.852651         0.502905        -0.264447
 H        -0.774357         0.009447         2.903428
 H        -1.288829         1.638706         2.586079
 H        -3.097943        -0.800106         2.413276
 H        -4.486675         0.775769         0.489874
 H        -3.146380         2.289938        -0.709311
 H        -3.211602         2.759479         0.809894
 H        -0.770462         1.831951        -0.985014
 H        -0.554562         2.806551         0.600170
 H        -1.344578        -1.540129         0.314866
