19
Iteration:  1625
 O         0.651564         0.225003         0.640955
 C        -0.753399         0.607283         0.792348
 C        -1.303224         0.624865         2.187042
 C        -2.570669        -0.030249         1.724567
 C        -3.295860         0.688563         0.576153
 C        -2.811849         2.092218         0.213017
 C        -1.211790         1.907989         0.050041
 O        -2.790198        -0.167848        -0.494665
 C        -1.792766        -0.504469         0.476460
 H         1.339058         0.997797         0.441157
 H        -0.515610        -0.029574         2.690203
 H        -1.331713         1.753140         2.902053
 H        -3.249687        -0.694507         2.345446
 H        -4.416169         0.668686         0.566213
 H        -3.219421         2.310941        -0.760952
 H        -3.021327         2.912024         0.942031
 H        -0.930611         1.694326        -0.978059
 H        -0.557168         2.709972         0.344399
 H        -1.382853        -1.559550         0.369638
