19
Iteration:  2676charge 0 multiplicity 1
 O         0.593874         0.358360         0.660114
 C        -0.744861         0.651165         0.813286
 C        -1.239962         0.603385         2.223821
 C        -2.597634        -0.032968         1.681253
 C        -3.346495         0.704584         0.595593
 C        -2.671280         2.147601         0.265762
 C        -1.277914         1.794799        -0.135216
 O        -2.827027        -0.216782        -0.472595
 C        -1.735830        -0.574132         0.528786
 H         1.030835         1.303541         0.639683
 H        -0.653645        -0.231315         2.713163
 H        -1.302691         1.551142         2.848126
 H        -3.184768        -0.771688         2.066663
 H        -4.444713         0.820907         0.616286
 H        -3.123353         2.622273        -0.636670
 H        -2.654191         2.696455         1.217723
 H        -1.059191         1.528831        -1.161264
 H        -0.632759         2.562235        -0.054741
 H        -1.257106        -1.565688         0.510944
