19
Iteration:  4165charge 0 multiplicity 1
 O         0.717205         0.273639         0.670531
 C        -0.764889         0.630974         0.812212
 C        -1.223649         0.697997         2.292313
 C        -2.546457         0.009223         1.688074
 C        -3.338595         0.689515         0.468691
 C        -2.789210         2.077229         0.237766
 C        -1.259982         1.903448         0.087888
 O        -2.848087        -0.228720        -0.518467
 C        -1.760713        -0.538583         0.389864
 H         0.793720        -0.240819        -0.113922
 H        -0.658006        -0.096726         2.866101
 H        -1.347825         1.673672         2.760150
 H        -3.023765        -0.620113         2.442735
 H        -4.437080         0.785391         0.496843
 H        -3.462458         2.768902        -0.420450
 H        -2.941794         2.710187         1.129275
 H        -1.005960         1.873842        -1.015416
 H        -0.673586         2.713065         0.586706
 H        -1.319845        -1.606118         0.548679
