19
Iteration:  3024
 O         0.675334         0.309856         0.492362
 C        -0.696768         0.534058         0.810314
 C        -1.244447         0.582164         2.269670
 C        -2.572668         0.115658         1.706538
 C        -3.337276         0.712471         0.459557
 C        -2.805097         2.106520         0.160256
 C        -1.295055         1.835596         0.101536
 O        -2.754550        -0.190179        -0.452136
 C        -1.802140        -0.550818         0.607612
 H         1.338065         0.968964         0.981592
 H        -0.782318        -0.293428         2.642437
 H        -1.306611         1.543883         2.773655
 H        -3.416678        -0.474551         2.294536
 H        -4.465299         0.599626         0.555789
 H        -3.194623         2.484612        -0.842563
 H        -3.152587         2.843938         0.873841
 H        -0.888640         1.707050        -0.908491
 H        -0.742587         2.592054         0.620001
 H        -1.451802        -1.598944         0.412688
