19
Iteration:    29charge 0 multiplicity 1
 O         0.651560         0.559406         0.702293
 C        -0.754285         0.599870         0.783827
 C        -1.421762         0.714895         2.247624
 C        -2.525595        -0.139483         1.680414
 C        -3.302987         0.722171         0.613994
 C        -2.589533         2.176513         0.303628
 C        -1.197525         1.656193        -0.224699
 O        -2.818222        -0.172632        -0.462219
 C        -1.845368        -0.616919         0.479204
 H         0.993288        -0.268182         0.787162
 H        -0.835069        -0.044884         2.875476
 H        -1.741579         1.691134         2.723785
 H        -3.073941        -0.859779         2.330177
 H        -4.400985         0.748225         0.674752
 H        -3.238599         2.902862        -0.337093
 H        -2.440043         2.733155         1.299748
 H        -1.403246         1.202473        -1.235344
 H        -0.400307         2.399986        -0.468310
 H        -1.521542        -1.721251         0.339352
