19
Iteration:  3566
 O         0.552720         0.321157         0.455327
 C        -0.769190         0.631737         0.849989
 C        -1.339459         0.603487         2.376214
 C        -2.549958         0.000513         1.656855
 C        -3.301998         0.738868         0.544085
 C        -2.680274         2.096370         0.185491
 C        -1.182395         1.854629         0.033047
 O        -2.762199        -0.240052        -0.422851
 C        -1.770430        -0.565956         0.500414
 H         1.103949         1.037717         0.472787
 H        -0.892455        -0.097838         3.085430
 H        -1.483676         1.584815         2.751097
 H        -3.178175        -0.713130         2.165014
 H        -4.445270         0.710117         0.682659
 H        -2.947501         2.537370        -0.765560
 H        -2.912769         2.921646         0.890207
 H        -1.152737         1.568765        -1.012757
 H        -0.671716         2.746140         0.430523
 H        -1.318588        -1.596088         0.462344
