19
Iteration:  3599charge 0 multiplicity 1
 O         0.644564         0.240265         0.603335
 C        -0.736200         0.633558         0.712539
 C        -1.204860         0.611581         2.193354
 C        -2.565392         0.064800         1.673803
 C        -3.365473         0.682670         0.528099
 C        -2.745262         2.032768         0.173784
 C        -1.216296         1.949203         0.103692
 O        -2.823796        -0.215361        -0.410696
 C        -1.846940        -0.570574         0.533904
 H         1.116954         1.102940         0.912233
 H        -0.652762        -0.033824         2.867142
 H        -1.140398         1.613909         2.567232
 H        -3.098702        -0.707982         2.220186
 H        -4.499023         0.486119         0.525227
 H        -2.957251         2.441086        -0.808190
 H        -3.113771         2.753670         0.953839
 H        -0.905246         2.203552        -0.919988
 H        -0.651852         2.819670         0.538256
 H        -1.443652        -1.616129         0.467455
