19
Iteration:  2791
 O         0.652989         0.423069         0.597985
 C        -0.756540         0.537449         0.816505
 C        -1.229956         0.640291         2.227269
 C        -2.610702        -0.003832         1.668320
 C        -3.313814         0.782842         0.568071
 C        -2.704539         2.063743         0.277798
 C        -1.209956         1.839539        -0.032486
 O        -2.824696        -0.203267        -0.495338
 C        -1.825521        -0.654535         0.510658
 H         1.285238         1.164165         0.972163
 H        -0.716917        -0.148741         2.730402
 H        -1.341015         1.618898         2.632565
 H        -3.167228        -0.702216         2.409478
 H        -4.390875         0.706760         0.507555
 H        -3.279934         2.514452        -0.484140
 H        -2.881278         2.563333         1.265730
 H        -1.172140         1.640223        -1.094095
 H        -0.648854         2.679104         0.089141
 H        -1.502432        -1.701185         0.329370
