19
Iteration:  3157charge 0 multiplicity 1
 O         0.539414         0.251903         0.520580
 C        -0.742613         0.632039         0.805070
 C        -1.354714         0.630045         2.241641
 C        -2.581476        -0.011812         1.678838
 C        -3.367391         0.681540         0.541521
 C        -2.685285         2.157125         0.241491
 C        -1.127893         1.958506         0.106883
 O        -2.788927        -0.303271        -0.448074
 C        -1.744107        -0.548557         0.488362
 H         1.155155         1.067786         0.356308
 H        -0.762285         0.068909         2.933163
 H        -1.369344         1.588154         2.726821
 H        -3.303421        -0.624003         2.315282
 H        -4.457248         0.479943         0.298492
 H        -2.990895         2.523413        -0.796116
 H        -2.931384         2.907977         0.983742
 H        -0.689897         1.826430        -0.900131
 H        -0.666759         2.755036         0.730515
 H        -1.130909        -1.450524         0.382151
