19
Iteration:  4180
 O         0.651119         0.354781         0.697457
 C        -0.716771         0.633670         0.778847
 C        -1.272511         0.575333         2.220367
 C        -2.522220        -0.062805         1.681838
 C        -3.354243         0.757621         0.559519
 C        -2.770181         2.108277         0.210780
 C        -1.214441         1.909088         0.037976
 O        -2.816555        -0.200429        -0.454783
 C        -1.773005        -0.542976         0.483444
 H         0.801667        -0.236083        -0.167121
 H        -0.754551        -0.090135         2.868170
 H        -1.291857         1.478973         2.869030
 H        -3.281622        -0.719756         2.172883
 H        -4.408030         0.581953         0.635073
 H        -3.081070         2.365964        -0.830907
 H        -3.114021         2.822395         0.994912
 H        -1.040007         1.705888        -1.015448
 H        -0.656643         2.912751         0.239071
 H        -1.418394        -1.506286         0.124879
