19
Iteration:  2363charge 0 multiplicity 1
 O         0.683733         0.404483         0.660029
 C        -0.723217         0.631212         0.771442
 C        -1.232163         0.603243         2.313050
 C        -2.586035         0.054878         1.676934
 C        -3.366535         0.730491         0.489164
 C        -2.717189         2.072775         0.338535
 C        -1.316420         1.827452        -0.124381
 O        -2.799849        -0.286744        -0.443866
 C        -1.775863        -0.559616         0.477006
 H         1.120449         0.660676        -0.231100
 H        -0.819226        -0.377866         2.716487
 H        -1.175641         1.468048         3.004190
 H        -3.265252        -0.506870         2.483400
 H        -4.471127         0.884972         0.299596
 H        -3.168908         2.822859        -0.288985
 H        -2.823230         2.561843         1.352411
 H        -1.168730         1.537196        -1.165516
 H        -0.745637         2.664306         0.048003
 H        -1.389393        -1.606556         0.462505
