19
Iteration:  2105charge 0 multiplicity 1
 O         0.713688         0.238535         0.751476
 C        -0.748720         0.650154         0.714360
 C        -1.283915         0.777903         2.199446
 C        -2.511804        -0.071556         1.686941
 C        -3.418591         0.737746         0.572524
 C        -2.753848         2.050992         0.339414
 C        -1.282512         1.842695        -0.151629
 O        -2.819696        -0.271104        -0.443750
 C        -1.764050        -0.528070         0.445312
 H         1.187890         1.006714         0.593202
 H        -0.704582         0.010975         2.677953
 H        -1.313865         1.856853         2.579721
 H        -3.030621        -0.699353         2.328084
 H        -4.473310         0.757395         0.413610
 H        -3.349466         2.843498        -0.287282
 H        -2.577685         2.653088         1.272499
 H        -1.142144         1.628126        -1.175520
 H        -0.723985         2.772766         0.127246
 H        -1.391037        -1.520349         0.311301
