19
Iteration:   665charge 0 multiplicity 1
 O         0.637109         0.306954         0.730937
 C        -0.759758         0.682296         0.773650
 C        -1.285236         0.681724         2.261850
 C        -2.555301        -0.029083         1.688869
 C        -3.279304         0.725818         0.554334
 C        -2.731392         2.053495         0.149638
 C        -1.198298         1.845089        -0.086696
 O        -2.856035        -0.269564        -0.437727
 C        -1.796035        -0.555679         0.515387
 H         1.086937         0.703657         0.026420
 H        -0.662779         0.030468         2.943316
 H        -1.461612         1.604339         2.851994
 H        -3.243462        -0.607539         2.223231
 H        -4.435131         0.796817         0.720299
 H        -3.356816         2.528767        -0.547230
 H        -2.793195         2.751866         1.000760
 H        -0.948107         1.752426        -1.183635
 H        -0.611870         2.815966         0.056431
 H        -1.184476        -1.507798         0.375943
