19
Iteration:   111charge 0 multiplicity 1
 O         0.469022         0.188864         0.351513
 C        -0.745395         0.680488         0.829607
 C        -1.318937         0.683387         2.322409
 C        -2.583864         0.060225         1.709929
 C        -3.361218         0.656007         0.514953
 C        -2.732104         2.045412         0.113342
 C        -1.129805         1.986735         0.222297
 O        -2.691056        -0.262320        -0.460606
 C        -1.712425        -0.530011         0.575276
 H         1.180085         0.733153         0.646470
 H        -0.881075        -0.105255         2.968955
 H        -1.399444         1.518068         3.020483
 H        -3.207296        -0.519859         2.373821
 H        -4.480278         0.660521         0.482005
 H        -2.916389         2.007812        -0.929943
 H        -3.178728         2.940616         0.497845
 H        -0.877273         2.004153        -0.831648
 H        -0.807169         2.805684         0.796464
 H        -1.250699        -1.544453         0.695732
