19
Iteration:   818charge 0 multiplicity 1
 O         0.638996         0.302757         0.560185
 C        -0.788700         0.617465         0.821296
 C        -1.274416         0.593422         2.276089
 C        -2.615915         0.045949         1.741501
 C        -3.314593         0.702601         0.462138
 C        -2.716912         2.153232         0.247002
 C        -1.268661         1.820755        -0.050004
 O        -2.733954        -0.282130        -0.459034
 C        -1.768980        -0.504821         0.574691
 H         1.082554         1.165858         0.556795
 H        -0.897160        -0.226634         2.928368
 H        -1.189168         1.546891         2.771601
 H        -3.227346        -0.536415         2.395231
 H        -4.477454         0.706798         0.362509
 H        -3.216101         2.582898        -0.772545
 H        -2.855465         2.805812         1.162781
 H        -1.196574         1.420358        -1.127214
 H        -0.732501         2.839794         0.089362
 H        -1.166838        -1.467542         0.579189
