19
Iteration:   923charge 0 multiplicity 1
 O         0.644998         0.449862         0.610264
 C        -0.691991         0.579527         0.804601
 C        -1.394337         0.680908         2.216732
 C        -2.634131        -0.110463         1.702181
 C        -3.334527         0.700861         0.581289
 C        -2.637541         2.180819         0.316483
 C        -1.274209         1.654997        -0.111629
 O        -2.785392        -0.151109        -0.479917
 C        -1.732173        -0.603695         0.522074
 H         1.188927         1.160517         0.681504
 H        -0.866149        -0.024907         2.912119
 H        -1.560657         1.738219         2.721701
 H        -3.252158        -0.903704         2.330007
 H        -4.372568         0.858427         0.627651
 H        -3.082096         2.781597        -0.394558
 H        -2.535354         2.812078         1.131181
 H        -1.393576         1.302843        -1.188919
 H        -0.408385         2.433254        -0.267568
 H        -1.459895        -1.616521         0.417853
