19
Iteration:  4030charge 0 multiplicity 1
 O         0.613443         0.217887         0.571540
 C        -0.701503         0.662578         0.804726
 C        -1.379693         0.699248         2.281305
 C        -2.593826        -0.043884         1.738872
 C        -3.329156         0.729635         0.496461
 C        -2.738009         2.088420         0.287467
 C        -1.154881         1.853687         0.015133
 O        -2.742341        -0.202184        -0.492372
 C        -1.762596        -0.495495         0.509667
 H         0.763445         0.413983        -0.408634
 H        -0.914456         0.030688         3.023213
 H        -1.484026         1.777727         2.545392
 H        -3.067130        -0.868898         2.323080
 H        -4.458151         0.567916         0.640186
 H        -3.211608         2.509861        -0.561388
 H        -2.983384         2.583687         1.308826
 H        -0.979835         1.835239        -1.086968
 H        -0.709978         2.765215         0.297892
 H        -1.346916        -1.480977         0.487499
