19
Iteration:  4320charge 0 multiplicity 1
 O         0.675184         0.325329         0.579759
 C        -0.774471         0.594551         0.766190
 C        -1.228054         0.610596         2.180104
 C        -2.527562         0.054968         1.745457
 C        -3.384518         0.744953         0.462735
 C        -2.777306         2.062232         0.270351
 C        -1.189579         1.924817         0.045189
 O        -2.846179        -0.294401        -0.466850
 C        -1.849265        -0.558953         0.506487
 H         1.192349         0.823874         1.169930
 H        -0.706206        -0.182339         2.724301
 H        -1.069161         1.591964         2.682794
 H        -3.135989        -0.620429         2.410038
 H        -4.448457         0.711463         0.594745
 H        -3.037165         2.371583        -0.782546
 H        -2.915706         2.865443         0.976154
 H        -0.808183         1.964375        -0.960815
 H        -0.659082         2.659343         0.634893
 H        -1.289093        -1.565323         0.456246
