19
Iteration:  3441
 O         0.616108         0.247214         0.488592
 C        -0.705721         0.635168         0.814428
 C        -1.275996         0.629808         2.268545
 C        -2.606517         0.070597         1.658685
 C        -3.318826         0.659746         0.496400
 C        -2.740055         2.074275         0.245259
 C        -1.273471         1.894708         0.108463
 O        -2.765932        -0.228434        -0.507543
 C        -1.768962        -0.528350         0.583066
 H         1.159343         0.979623         0.588041
 H        -0.771097        -0.118948         2.878599
 H        -1.125816         1.638039         2.755725
 H        -3.351597        -0.359472         2.354727
 H        -4.406133         0.609485         0.420885
 H        -3.160603         2.470496        -0.721046
 H        -2.861325         2.660505         1.139374
 H        -1.022653         1.883928        -0.974954
 H        -0.707930         2.564413         0.729234
 H        -1.455980        -1.548494         0.464858
