19
Iteration:  2356
 O         0.648147         0.398736         0.636516
 C        -0.687000         0.651215         0.777914
 C        -1.252999         0.568875         2.230122
 C        -2.615914         0.081896         1.642644
 C        -3.363736         0.740519         0.519862
 C        -2.731561         2.062579         0.274972
 C        -1.273716         1.817311        -0.030704
 O        -2.794345        -0.297599        -0.448612
 C        -1.754427        -0.552297         0.532773
 H         0.925241         0.754619        -0.165641
 H        -0.763725        -0.253633         2.704369
 H        -1.122628         1.418437         2.917400
 H        -3.223275        -0.481744         2.236089
 H        -4.447379         0.769748         0.717402
 H        -3.241505         2.847776        -0.309003
 H        -2.753495         2.572507         1.212420
 H        -1.292464         1.458408        -1.108782
 H        -0.633170         2.730968         0.271528
 H        -1.330426        -1.560099         0.584271
