19
Iteration:  4661charge 0 multiplicity 1
 O         0.621322         0.411557         0.789056
 C        -0.797724         0.557511         0.742633
 C        -1.202275         0.534111         2.247289
 C        -2.570506        -0.071341         1.739297
 C        -3.342113         0.747261         0.535628
 C        -2.702682         2.215535         0.208735
 C        -1.232732         1.834759        -0.023155
 O        -2.803641        -0.174162        -0.536162
 C        -1.825610        -0.575843         0.466343
 H         0.931454         0.491588        -0.061097
 H        -0.749870        -0.225351         2.827573
 H        -0.986415         1.507972         2.709953
 H        -3.193890        -0.610048         2.417482
 H        -4.410145         0.579199         0.560209
 H        -3.288511         2.483822        -0.649475
 H        -2.870626         2.852345         1.027492
 H        -0.911162         1.509670        -1.151993
 H        -0.555720         2.637072         0.265764
 H        -1.342630        -1.605636         0.449714
