19
Iteration:  3788charge 0 multiplicity 1
 O         0.605188         0.388663         0.656053
 C        -0.772731         0.586123         0.745044
 C        -1.328890         0.730769         2.276852
 C        -2.614451        -0.060591         1.619017
 C        -3.286832         0.739333         0.510176
 C        -2.626406         2.120115         0.342878
 C        -1.249595         1.823355        -0.004920
 O        -2.772576        -0.239695        -0.470635
 C        -1.752119        -0.629651         0.493580
 H         0.970681         0.314031        -0.260747
 H        -0.872569         0.114147         3.018902
 H        -1.427745         1.767841         2.594623
 H        -3.340538        -0.546849         2.379592
 H        -4.428346         0.597355         0.479290
 H        -3.121616         2.861153        -0.289716
 H        -2.770376         2.536922         1.374096
 H        -1.255901         1.692935        -1.099080
 H        -0.429045         2.563492         0.063352
 H        -1.446876        -1.680602         0.421590
