19
Iteration:  1760
 O         0.577492         0.204655         0.602284
 C        -0.718476         0.695033         0.768683
 C        -1.309253         0.692758         2.226463
 C        -2.524809        -0.081274         1.644547
 C        -3.314012         0.672139         0.546535
 C        -2.705801         2.080518         0.212432
 C        -1.128094         2.002582         0.171326
 O        -2.841718        -0.270363        -0.479167
 C        -1.861583        -0.548449         0.434519
 H         1.141156         1.063334         0.334701
 H        -0.676141         0.167146         2.949881
 H        -1.427428         1.779659         2.707842
 H        -3.176913        -0.698779         2.233544
 H        -4.378390         0.545474         0.707156
 H        -2.980782         2.356163        -0.771309
 H        -3.041663         2.743031         1.007878
 H        -0.885062         1.952462        -0.825802
 H        -0.668682         2.718126         0.748940
 H        -1.313459        -1.427724         0.317330
