19
Iteration:  1933
 O         0.696354         0.486789         0.726135
 C        -0.712363         0.527256         0.703698
 C        -1.293856         0.646237         2.214665
 C        -2.621061        -0.005362         1.665061
 C        -3.352553         0.730522         0.556626
 C        -2.667841         2.111455         0.334905
 C        -1.193729         1.786415         0.009831
 O        -2.842066        -0.266614        -0.490050
 C        -1.854155        -0.603508         0.450857
 H         1.047443         0.953805        -0.091178
 H        -0.759867        -0.004495         2.805618
 H        -1.189334         1.569957         2.647318
 H        -3.153974        -0.700391         2.312500
 H        -4.451596         0.747562         0.545011
 H        -2.988434         2.644454        -0.461287
 H        -2.879386         2.780309         1.171790
 H        -1.294204         1.510086        -1.031949
 H        -0.424011         2.608158        -0.002926
 H        -1.604079        -1.631835         0.542649
