19
Iteration:  4584
 O         0.664274         0.320187         0.715191
 C        -0.773098         0.600067         0.747772
 C        -1.247806         0.583427         2.237128
 C        -2.619136         0.045662         1.741629
 C        -3.385394         0.743559         0.561112
 C        -2.779829         2.070535         0.179000
 C        -1.137032         1.915729         0.087721
 O        -2.818240        -0.215361        -0.510632
 C        -1.764508        -0.564627         0.439423
 H         1.156403         0.345570        -0.238392
 H        -0.670429        -0.158933         2.776310
 H        -1.114066         1.461724         2.927288
 H        -3.267362        -0.701259         2.158560
 H        -4.463885         0.640558         0.568468
 H        -3.272350         2.383392        -0.770721
 H        -3.022978         2.716621         0.985018
 H        -0.837794         1.994564        -0.978078
 H        -0.722623         2.789599         0.545733
 H        -1.217335        -1.562394         0.270949
