19
Iteration:  2365
 O         0.700524         0.407939         0.661704
 C        -0.743302         0.623928         0.769047
 C        -1.228573         0.612474         2.324840
 C        -2.577109         0.032389         1.705141
 C        -3.367327         0.728991         0.476241
 C        -2.716514         2.091588         0.363909
 C        -1.318591         1.823499        -0.140617
 O        -2.806355        -0.279402        -0.448050
 C        -1.784081        -0.562341         0.471488
 H         1.082625         0.602795        -0.142356
 H        -0.854677        -0.331048         2.723918
 H        -1.187704         1.476415         3.012769
 H        -3.205127        -0.486569         2.451921
 H        -4.451127         0.841514         0.203233
 H        -3.171156         2.757082        -0.341135
 H        -2.797618         2.502689         1.336591
 H        -1.140386         1.570280        -1.222723
 H        -0.717970         2.728502        -0.043084
 H        -1.411425        -1.606376         0.404490
