19
Iteration:  3003charge 0 multiplicity 1
 O         0.592192         0.325680         0.524206
 C        -0.795172         0.627512         0.775057
 C        -1.208807         0.636058         2.313580
 C        -2.622435        -0.031609         1.707118
 C        -3.340681         0.751991         0.516051
 C        -2.704144         2.086146         0.187188
 C        -1.175671         1.941973         0.063963
 O        -2.795640        -0.305713        -0.478729
 C        -1.798186        -0.552759         0.500612
 H         1.098395         1.051347         0.847838
 H        -0.797386        -0.319290         2.837835
 H        -1.135758         1.599444         2.935304
 H        -3.267796        -0.569704         2.538676
 H        -4.483819         0.714930         0.577948
 H        -3.181859         2.390970        -0.817082
 H        -2.974268         2.847449         0.901518
 H        -0.701488         1.734351        -0.886632
 H        -0.514786         2.653556         0.469742
 H        -1.423512        -1.620679         0.533582
