19
Iteration:  1870charge 0 multiplicity 1
 O         0.614060         0.181092         0.689348
 C        -0.763683         0.627082         0.728605
 C        -1.247906         0.636142         2.201804
 C        -2.491585         0.012769         1.737029
 C        -3.334001         0.667313         0.558094
 C        -2.848424         2.096613         0.132513
 C        -1.224321         1.986542         0.168421
 O        -2.755108        -0.179100        -0.490757
 C        -1.758748        -0.515072         0.414950
 H         0.938512         0.017188        -0.261076
 H        -0.689884        -0.029196         2.889817
 H        -1.353866         1.690949         2.573809
 H        -3.036738        -0.523939         2.523983
 H        -4.410624         0.470513         0.679572
 H        -3.329350         2.504460        -0.811580
 H        -3.088416         2.638757         1.079894
 H        -0.913720         2.155663        -0.879605
 H        -0.816465         2.764337         0.793631
 H        -1.391322        -1.541615         0.375470
