19
Iteration:  3823
 O         0.634428         0.314958         0.698650
 C        -0.725067         0.638683         0.777820
 C        -1.285960         0.625473         2.318480
 C        -2.545955        -0.036442         1.710325
 C        -3.363996         0.690320         0.610446
 C        -2.675255         2.033969         0.184225
 C        -1.199265         1.850941        -0.070880
 O        -2.854320        -0.154047        -0.480367
 C        -1.793855        -0.560425         0.389281
 H         1.144733         1.116196         0.275810
 H        -0.652581        -0.023904         2.970812
 H        -1.296904         1.595905         2.824513
 H        -3.367761        -0.622281         2.215759
 H        -4.432424         0.888831         0.747349
 H        -3.145214         2.449110        -0.760030
 H        -2.860212         2.640369         1.095994
 H        -1.056947         1.573263        -1.150181
 H        -0.675124         2.792192         0.280499
 H        -1.443064        -1.581238         0.409630
