19
Iteration:  4688
 O         0.719351         0.397559         0.688941
 C        -0.711697         0.634625         0.732807
 C        -1.344016         0.616823         2.245536
 C        -2.591593        -0.091582         1.618507
 C        -3.350106         0.762295         0.528656
 C        -2.605751         2.060561         0.204780
 C        -1.125287         1.925616         0.110804
 O        -2.930629        -0.246696        -0.432471
 C        -1.846998        -0.601801         0.440850
 H         0.889361         0.599639        -0.185063
 H        -0.865528        -0.187565         2.932909
 H        -1.284375         1.625347         2.753146
 H        -3.378776        -0.627321         2.230474
 H        -4.463393         0.777901         0.662810
 H        -3.129002         2.290818        -0.751216
 H        -3.125655         2.707852         0.996165
 H        -0.791716         1.821624        -0.837820
 H        -0.546930         2.785343         0.532173
 H        -1.391893        -1.568558         0.420303
