19
Iteration:   879
 O         0.662588         0.184429         0.588807
 C        -0.748326         0.675496         0.798274
 C        -1.256924         0.720285         2.209331
 C        -2.536941        -0.008413         1.656004
 C        -3.363895         0.693703         0.531416
 C        -2.782647         2.071634         0.151401
 C        -1.168751         1.985280         0.116896
 O        -2.875421        -0.304135        -0.421797
 C        -1.782488        -0.535452         0.484954
 H         1.139563         0.933550         0.777355
 H        -0.720997        -0.089026         2.740486
 H        -1.211141         1.750386         2.711909
 H        -3.048265        -0.806876         2.361683
 H        -4.419173         0.657426         0.580602
 H        -3.130682         2.305422        -0.809503
 H        -3.145764         2.859939         0.758407
 H        -0.768942         1.941844        -0.910406
 H        -0.725953         2.905044         0.681825
 H        -1.263039        -1.464889         0.491109
