19
Iteration:  1177
 O         0.570996         0.191793         0.481035
 C        -0.798596         0.686546         0.823542
 C        -1.348875         0.701183         2.327170
 C        -2.573601        -0.063359         1.747075
 C        -3.315734         0.709424         0.537870
 C        -2.752105         2.051751         0.177984
 C        -1.153554         1.917725         0.060671
 O        -2.718562        -0.234605        -0.468429
 C        -1.750216        -0.517274         0.524553
 H         1.181862         0.955934         0.201432
 H        -0.518584         0.255736         2.927821
 H        -1.560495         1.743215         2.725320
 H        -3.307334        -0.630534         2.441643
 H        -4.383739         0.703125         0.549232
 H        -3.147325         2.178885        -0.847289
 H        -3.085219         2.849270         1.053211
 H        -0.845528         1.758960        -1.039688
 H        -0.662632         2.827184         0.421040
 H        -1.373280        -1.480863         0.415597
