19
Iteration:  1137charge 0 multiplicity 1
 O         0.655475         0.345070         0.445629
 C        -0.671259         0.587332         0.804850
 C        -1.197059         0.624155         2.278171
 C        -2.659492         0.109898         1.789747
 C        -3.354183         0.731801         0.439423
 C        -2.780563         2.090404         0.122837
 C        -1.191583         1.914682         0.168326
 O        -2.836027        -0.340322        -0.477615
 C        -1.799592        -0.600129         0.598516
 H         1.190835         1.025994         0.811937
 H        -0.713826        -0.168463         2.817945
 H        -1.270379         1.581453         2.698643
 H        -3.319582        -0.609507         2.369818
 H        -4.476304         0.724736         0.261949
 H        -3.166306         2.547659        -0.827776
 H        -3.091096         2.711802         0.807519
 H        -0.878926         1.831764        -0.829475
 H        -0.615501         2.737233         0.663946
 H        -1.301731        -1.644797         0.745839
