19
Iteration:  2194charge 0 multiplicity 1
 O         0.579884         0.219824         0.656230
 C        -0.781363         0.674199         0.697998
 C        -1.196584         0.663065         2.221678
 C        -2.487023        -0.058260         1.732589
 C        -3.365368         0.650709         0.471438
 C        -2.772040         2.114520         0.127754
 C        -1.142030         2.020091         0.086121
 O        -2.920348        -0.298119        -0.393412
 C        -1.748506        -0.541385         0.491859
 H         1.071992         0.971316         0.359967
 H        -0.576851        -0.095216         2.660000
 H        -1.094373         1.658081         2.757819
 H        -2.936436        -0.687534         2.466380
 H        -4.411228         0.545929         0.640948
 H        -3.271129         2.593101        -0.775485
 H        -3.106713         2.888982         0.885675
 H        -0.813866         2.000711        -0.897910
 H        -0.686106         2.856618         0.690219
 H        -1.196075        -1.448068         0.491140
