19
Iteration:  3345
 O         0.670779         0.351639         0.616332
 C        -0.729694         0.542750         0.792575
 C        -1.252891         0.637526         2.162470
 C        -2.622554         0.031160         1.693814
 C        -3.347100         0.696202         0.528527
 C        -2.735693         2.161119         0.306290
 C        -1.184557         1.835159         0.019631
 O        -2.808790        -0.229875        -0.482751
 C        -1.832613        -0.577952         0.438214
 H         1.100794         1.213606         1.025715
 H        -0.834543        -0.083266         2.905386
 H        -1.214078         1.504169         2.781356
 H        -3.236865        -0.555217         2.315653
 H        -4.454682         0.498276         0.591574
 H        -3.183637         2.553884        -0.608888
 H        -2.963507         2.636915         1.265624
 H        -0.951553         1.593588        -1.096500
 H        -0.482763         2.708905         0.372262
 H        -1.485092        -1.615366         0.442395
