19
Iteration:  1353charge 0 multiplicity 1
 O         0.639094         0.432984         0.626667
 C        -0.797907         0.642064         0.827258
 C        -1.344838         0.555269         2.290878
 C        -2.598874        -0.072322         1.728635
 C        -3.242317         0.758777         0.617081
 C        -2.650314         2.088834         0.228466
 C        -1.186938         1.831022        -0.132680
 O        -2.815226        -0.167711        -0.486103
 C        -1.814899        -0.637260         0.427297
 H         1.084096         1.066169         1.086965
 H        -0.729128        -0.234449         2.763846
 H        -1.258066         1.560322         2.964586
 H        -3.279330        -0.794836         2.270985
 H        -4.321981         0.752031         0.593498
 H        -3.302359         2.611809        -0.388843
 H        -2.912333         2.794069         1.069609
 H        -1.201877         1.315200        -1.119771
 H        -0.438367         2.641572        -0.279759
 H        -1.563879        -1.632792         0.381469
