19
Iteration:  3486
 O         0.607187         0.318786         0.620420
 C        -0.756557         0.597794         0.805828
 C        -1.354170         0.646792         2.240228
 C        -2.551633        -0.051667         1.657724
 C        -3.259845         0.727865         0.631065
 C        -2.741050         2.023588         0.227324
 C        -1.122633         1.872572        -0.044294
 O        -2.870227        -0.170912        -0.446542
 C        -1.749266        -0.548266         0.461357
 H         1.095284         1.087531         0.467573
 H        -0.795913        -0.078863         2.875446
 H        -1.509925         1.552103         2.842295
 H        -3.121548        -0.811361         2.164841
 H        -4.362417         0.871142         0.723391
 H        -3.265836         2.324898        -0.717516
 H        -2.816885         2.695038         1.079667
 H        -1.029992         1.801695        -1.156295
 H        -0.669960         2.815896         0.251236
 H        -1.269237        -1.534422         0.374938
