19
Iteration:  2438
 O         0.625788         0.287472         0.645781
 C        -0.693282         0.676977         0.773219
 C        -1.226420         0.609657         2.239495
 C        -2.525204         0.049757         1.663322
 C        -3.364806         0.735842         0.557154
 C        -2.763097         2.056206         0.174827
 C        -1.234793         1.997676         0.063931
 O        -2.853949        -0.362080        -0.413979
 C        -1.789019        -0.534732         0.482425
 H         0.891099         0.313884        -0.220427
 H        -0.650542        -0.265599         2.631951
 H        -1.188129         1.535129         2.812090
 H        -3.096191        -0.757392         2.279424
 H        -4.436604         0.841502         0.688950
 H        -3.172359         2.348287        -0.806101
 H        -3.065301         2.867011         0.949797
 H        -0.901049         2.157740        -0.917579
 H        -0.727083         2.848007         0.499956
 H        -1.221471        -1.478743         0.364279
