19
Iteration:  3307
 O         0.535445         0.169847         0.471974
 C        -0.766844         0.681240         0.818580
 C        -1.397790         0.669993         2.340207
 C        -2.552143        -0.049308         1.699056
 C        -3.266065         0.652753         0.556535
 C        -2.794094         2.116774         0.253226
 C        -1.086711         1.995207         0.096883
 O        -2.759708        -0.248976        -0.511729
 C        -1.730255        -0.535180         0.506017
 H         1.152343         0.895342         0.442093
 H        -0.866499        -0.023813         2.970650
 H        -1.535252         1.779669         2.494165
 H        -3.198408        -0.740516         2.383830
 H        -4.338845         0.637058         0.573615
 H        -3.198794         2.541751        -0.694545
 H        -2.874374         2.989879         0.927755
 H        -0.922326         1.690640        -0.926390
 H        -0.671857         2.905225         0.449920
 H        -1.207893        -1.479840         0.204717
