19
Iteration:   629
 O         0.736650         0.381368         0.885630
 C        -0.695918         0.602513         0.698148
 C        -1.303043         0.702539         2.139307
 C        -2.567835        -0.028036         1.624829
 C        -3.359152         0.754164         0.635859
 C        -2.738958         2.071155         0.253237
 C        -1.225379         1.724662        -0.140711
 O        -2.877765        -0.164736        -0.423982
 C        -1.785901        -0.596981         0.460920
 H         1.213105         0.762658         0.207668
 H        -0.604989         0.210805         2.721758
 H        -1.500024         1.691434         2.419243
 H        -3.227256        -0.723183         2.246930
 H        -4.462663         0.665005         0.653087
 H        -3.323544         2.409707        -0.656669
 H        -2.811416         2.686632         1.054268
 H        -1.138645         1.348857        -1.203794
 H        -0.686902         2.603399         0.156347
 H        -1.458915        -1.562385         0.404751
