19
Iteration:  3822charge 0 multiplicity 1
 O         0.630793         0.320446         0.698297
 C        -0.725668         0.638137         0.771418
 C        -1.286160         0.624165         2.319823
 C        -2.550445        -0.047515         1.708778
 C        -3.362856         0.695135         0.617135
 C        -2.671914         2.044251         0.182919
 C        -1.197461         1.849697        -0.072320
 O        -2.847164        -0.157804        -0.481528
 C        -1.797821        -0.559101         0.392032
 H         1.172148         1.118691         0.250005
 H        -0.703510        -0.032282         2.968261
 H        -1.317394         1.610693         2.788336
 H        -3.381804        -0.626183         2.263777
 H        -4.475000         0.869945         0.749236
 H        -3.142543         2.433254        -0.736195
 H        -2.835079         2.606745         1.116145
 H        -1.055659         1.585567        -1.144438
 H        -0.632177         2.779547         0.253554
 H        -1.434941        -1.571845         0.424424
