19
Iteration:  3732charge 0 multiplicity 1
 O         0.613226         0.339739         0.658229
 C        -0.771637         0.675690         0.814098
 C        -1.276828         0.625263         2.296772
 C        -2.528915        -0.134056         1.697845
 C        -3.254956         0.762947         0.642896
 C        -2.751127         2.116360         0.088106
 C        -1.186605         1.952297         0.054288
 O        -2.843204        -0.243025        -0.484354
 C        -1.760528        -0.569018         0.409273
 H         0.572501        -0.213258        -0.260958
 H        -0.522451         0.156270         2.866146
 H        -1.482262         1.583514         2.794651
 H        -3.179023        -0.657082         2.475980
 H        -4.400677         0.592365         0.698143
 H        -3.132772         2.298822        -0.905092
 H        -3.065856         2.982123         0.768033
 H        -0.840686         1.884805        -0.985107
 H        -0.738990         2.641339         0.782700
 H        -1.535324        -1.649329         0.384588
