19
Iteration:   842charge 0 multiplicity 1
 O         0.512166         0.208424         0.401226
 C        -0.818971         0.641648         0.852418
 C        -1.354378         0.790511         2.313257
 C        -2.544999        -0.048679         1.715668
 C        -3.258771         0.680535         0.552179
 C        -2.720821         2.065266         0.098986
 C        -1.144465         1.954096         0.112469
 O        -2.731871        -0.253978        -0.441399
 C        -1.738197        -0.563262         0.556122
 H         1.139149         0.858721         0.597123
 H        -0.805128         0.063031         2.949622
 H        -1.636544         1.685460         2.927657
 H        -3.143713        -0.658198         2.222592
 H        -4.409025         0.733182         0.565735
 H        -3.288799         2.237807        -0.840663
 H        -3.016177         2.757439         0.954952
 H        -0.671917         1.855426        -0.908816
 H        -0.759691         2.918769         0.758680
 H        -1.300905        -1.653768         0.432618
