19
Iteration:  3306charge 0 multiplicity 1
 O         0.530958         0.171066         0.476033
 C        -0.765438         0.677054         0.817348
 C        -1.403549         0.665405         2.337490
 C        -2.545922        -0.052247         1.697983
 C        -3.274636         0.653768         0.552485
 C        -2.798618         2.114904         0.250319
 C        -1.083009         2.003190         0.098868
 O        -2.762642        -0.243184        -0.516107
 C        -1.719069        -0.535494         0.515330
 H         1.153703         0.832665         0.424651
 H        -0.844648        -0.037008         2.991446
 H        -1.503410         1.796337         2.477652
 H        -3.172803        -0.720308         2.387615
 H        -4.361565         0.653107         0.589265
 H        -3.211368         2.506275        -0.700648
 H        -2.840957         3.006739         0.927192
 H        -0.975935         1.690821        -0.915485
 H        -0.668673         2.896245         0.443240
 H        -1.162072        -1.482377         0.214079
