19
Iteration:  2238charge 0 multiplicity 1
 O         0.674973         0.452715         0.626594
 C        -0.713842         0.578060         0.849206
 C        -1.352915         0.713944         2.232719
 C        -2.573019        -0.100616         1.739900
 C        -3.334838         0.706081         0.570663
 C        -2.672478         2.034346         0.314351
 C        -1.237105         1.677273        -0.105849
 O        -2.827840        -0.103408        -0.494602
 C        -1.750668        -0.573528         0.494533
 H         0.741677         0.779290        -0.305347
 H        -0.740785         0.245381         2.987565
 H        -1.567132         1.760347         2.618435
 H        -3.104750        -0.864875         2.312948
 H        -4.399023         0.762648         0.497240
 H        -3.201988         2.815067        -0.364416
 H        -2.694468         2.645048         1.301899
 H        -1.254983         1.222641        -1.051368
 H        -0.495252         2.508476         0.037720
 H        -1.590377        -1.569921         0.150028
