19
Iteration:   108
 O         0.474264         0.193595         0.344986
 C        -0.778764         0.691130         0.817654
 C        -1.332529         0.683506         2.290298
 C        -2.595392         0.084771         1.741451
 C        -3.342628         0.640088         0.556473
 C        -2.718314         2.007315         0.106627
 C        -1.127368         1.963313         0.231791
 O        -2.691095        -0.256188        -0.469885
 C        -1.703823        -0.498922         0.543981
 H         1.174175         0.656501         0.819905
 H        -0.884095        -0.184906         2.975560
 H        -1.432939         1.603788         2.972907
 H        -3.214975        -0.528987         2.381338
 H        -4.398361         0.630586         0.501838
 H        -2.854404         2.027470        -0.923751
 H        -3.217375         3.036925         0.511470
 H        -0.831914         2.003517        -0.740633
 H        -0.809701         2.826889         0.781248
 H        -1.251694        -1.612190         0.685714
