19
Iteration:  1904charge 0 multiplicity 1
 O         0.610662         0.351972         0.504665
 C        -0.732319         0.618252         0.829952
 C        -1.383574         0.592315         2.337336
 C        -2.592502        -0.047138         1.743502
 C        -3.297944         0.709309         0.525823
 C        -2.704951         2.089758         0.195090
 C        -1.131671         1.908707         0.092275
 O        -2.774228        -0.257742        -0.510530
 C        -1.793841        -0.521523         0.512568
 H         0.734106         0.646548        -0.503500
 H        -0.804221        -0.016097         3.122567
 H        -1.487624         1.617154         2.888952
 H        -3.226791        -0.664137         2.412672
 H        -4.399072         0.690748         0.586462
 H        -3.179800         2.678358        -0.722522
 H        -2.932199         2.730917         1.087722
 H        -0.920896         1.698889        -1.010610
 H        -0.574996         2.776937         0.354913
 H        -1.322686        -1.549361         0.475858
