19
Iteration:  4329
 O         0.589835         0.329565         0.622645
 C        -0.701628         0.552972         0.724293
 C        -1.172569         0.650497         2.181877
 C        -2.523378         0.060102         1.619521
 C        -3.327653         0.728783         0.509493
 C        -2.727239         2.126808         0.236462
 C        -1.222173         1.914614         0.073493
 O        -2.857980        -0.312095        -0.466890
 C        -1.825777        -0.627780         0.524647
 H         0.906309         0.925976         1.259305
 H        -0.861540        -0.154898         2.886763
 H        -0.997707         1.552904         2.798837
 H        -3.053230        -0.488067         2.418374
 H        -4.421655         0.781608         0.670106
 H        -3.271542         2.674078        -0.511566
 H        -3.121328         2.771502         1.019616
 H        -0.982973         2.049772        -0.987658
 H        -0.801331         2.749265         0.514680
 H        -1.474343        -1.704811         0.428926
