19
Iteration:    69
 O         0.695608         0.400812         0.624187
 C        -0.715732         0.601599         0.758723
 C        -1.292442         0.650130         2.204701
 C        -2.508900         0.023611         1.655792
 C        -3.343955         0.748282         0.531968
 C        -2.751927         2.164326         0.192256
 C        -1.214492         1.903121         0.033338
 O        -2.902756        -0.322435        -0.415538
 C        -1.785670        -0.622444         0.470554
 H         0.916851        -0.096080         1.521282
 H        -0.778341        -0.023820         2.819921
 H        -1.322637         1.582879         2.741122
 H        -3.065133        -0.663592         2.300394
 H        -4.444513         0.581415         0.674356
 H        -3.074287         2.550517        -0.867439
 H        -2.997341         2.867778         0.918034
 H        -0.945754         1.607811        -1.071405
 H        -0.467110         2.654426         0.387424
 H        -1.526341        -1.617101         0.501650
