19
Iteration:  3807charge 0 multiplicity 1
 O         0.637561         0.369888         0.675321
 C        -0.777718         0.601050         0.781170
 C        -1.385133         0.640974         2.159500
 C        -2.595967        -0.106882         1.706847
 C        -3.291805         0.776993         0.571075
 C        -2.681137         2.147475         0.320559
 C        -1.144960         1.807519        -0.074817
 O        -2.801394        -0.233450        -0.474420
 C        -1.795085        -0.579186         0.532823
 H         0.920085         0.915939        -0.041603
 H        -0.776038         0.048232         2.858132
 H        -1.544388         1.580981         2.741477
 H        -3.020201        -0.836669         2.411746
 H        -4.419271         0.687419         0.490696
 H        -3.229158         2.655329        -0.447348
 H        -2.722654         2.993901         1.006851
 H        -1.088189         1.474140        -1.101725
 H        -0.508307         2.664456         0.155671
 H        -1.304709        -1.508084         0.189139
