19
Iteration:   544charge 0 multiplicity 1
 O         0.610546         0.251422         0.686719
 C        -0.737826         0.575690         0.774536
 C        -1.233146         0.752485         2.226441
 C        -2.509101         0.040388         1.702324
 C        -3.361077         0.728184         0.564306
 C        -2.774044         2.008343         0.100717
 C        -1.278103         1.888989         0.125411
 O        -2.788022        -0.190219        -0.479657
 C        -1.763931        -0.548318         0.486835
 H         1.032219        -0.063967        -0.227135
 H        -0.809028         0.041408         3.039347
 H        -1.229010         1.812195         2.620010
 H        -2.957580        -0.691169         2.313891
 H        -4.513143         0.686443         0.539114
 H        -3.106227         2.164778        -0.929746
 H        -3.125693         2.999914         0.677018
 H        -0.779003         1.989151        -0.919339
 H        -0.840680         2.686889         0.755685
 H        -1.321845        -1.636371         0.494049
