19
Iteration:  2733
 O         0.529819         0.213804         0.473952
 C        -0.787696         0.631560         0.767494
 C        -1.366046         0.737984         2.252064
 C        -2.495951        -0.056533         1.782871
 C        -3.338500         0.660069         0.584540
 C        -2.690339         2.080884         0.207921
 C        -1.139775         1.933280         0.114899
 O        -2.756433        -0.243317        -0.466367
 C        -1.751913        -0.535065         0.458092
 H         1.069072         0.922289         0.639133
 H        -0.656661         0.384773         3.042014
 H        -1.742886         1.689340         2.710961
 H        -3.071486        -0.781680         2.373934
 H        -4.422520         0.665114         0.472407
 H        -3.128546         2.508156        -0.731843
 H        -3.190992         2.872476         0.845789
 H        -0.855187         1.895702        -0.954157
 H        -0.706632         2.626943         0.721158
 H        -1.200939        -1.430325         0.177836
