19
Iteration:  4131
 O         0.616312         0.294549         0.613170
 C        -0.807137         0.588955         0.746827
 C        -1.371834         0.724965         2.176538
 C        -2.590419        -0.093772         1.728384
 C        -3.277732         0.715958         0.514637
 C        -2.676947         2.143013         0.314473
 C        -1.201516         1.912985         0.054040
 O        -2.771030        -0.208128        -0.450809
 C        -1.706915        -0.590106         0.483032
 H         0.791909         0.428409        -0.266206
 H        -0.709318         0.125872         2.882131
 H        -1.672307         1.580210         2.752171
 H        -3.206535        -0.657935         2.398407
 H        -4.383810         0.752603         0.293777
 H        -3.337367         2.509914        -0.497520
 H        -2.775047         2.614933         1.307075
 H        -0.992038         1.779292        -1.064474
 H        -0.541486         2.674075         0.397498
 H        -1.479888        -1.696900         0.424384
