19
Iteration:   109
 O         0.473476         0.193001         0.347544
 C        -0.768249         0.689241         0.821033
 C        -1.328585         0.683963         2.299340
 C        -2.591596         0.077738         1.731317
 C        -3.350560         0.643447         0.543454
 C        -2.722683         2.019286         0.106154
 C        -1.124986         1.971666         0.227961
 O        -2.690669        -0.257905        -0.467113
 C        -1.705829        -0.508175         0.553414
 H         1.145148         0.661342         0.747816
 H        -0.878672        -0.170007         2.985161
 H        -1.425597         1.576837         2.998135
 H        -3.209262        -0.519286         2.373990
 H        -4.419430         0.643341         0.495069
 H        -2.866291         2.017340        -0.892223
 H        -3.211041         3.020327         0.508257
 H        -0.862304         2.000869        -0.741776
 H        -0.818577         2.804933         0.776419
 H        -1.244952        -1.610505         0.696864
