19
Iteration:  4653
 O         0.606759         0.381960         0.765213
 C        -0.804843         0.597756         0.795147
 C        -1.177811         0.596165         2.239077
 C        -2.620900        -0.078568         1.685058
 C        -3.381045         0.738325         0.535575
 C        -2.700887         2.062769         0.239559
 C        -1.200050         1.817265        -0.058741
 O        -2.738503        -0.129206        -0.516438
 C        -1.822133        -0.526144         0.492475
 H         1.020488         0.421309        -0.091406
 H        -0.553512        -0.241826         2.694843
 H        -1.087610         1.507518         2.910373
 H        -3.336255        -0.615002         2.358513
 H        -4.480898         0.786157         0.662616
 H        -3.109720         2.565496        -0.679939
 H        -2.990541         2.667442         1.136525
 H        -1.346550         1.638734        -1.046414
 H        -0.416887         2.582387         0.102746
 H        -1.473355        -1.525148         0.277525
