19
Iteration:  1145charge 0 multiplicity 1
 O         0.621618         0.331302         0.412887
 C        -0.752279         0.583456         0.799125
 C        -1.224765         0.624970         2.278951
 C        -2.614241         0.109066         1.696231
 C        -3.345360         0.769764         0.424828
 C        -2.762791         2.075604         0.133178
 C        -1.212072         1.869644         0.208593
 O        -2.743028        -0.329121        -0.412615
 C        -1.798866        -0.611031         0.594442
 H         1.167798         1.104236         0.716294
 H        -0.573382         0.002782         2.877726
 H        -1.213263         1.605720         2.774007
 H        -3.350420        -0.462098         2.453406
 H        -4.411104         0.693117         0.356247
 H        -3.185629         2.460082        -0.848924
 H        -3.243936         2.890705         0.875702
 H        -0.740581         1.842572        -0.837917
 H        -0.767873         2.718480         0.759542
 H        -1.588261        -1.640006         0.674887
