19
Iteration:  1809charge 0 multiplicity 1
 O         0.576594         0.449589         0.735674
 C        -0.745677         0.640796         0.803347
 C        -1.336583         0.558512         2.226279
 C        -2.576237        -0.131941         1.711127
 C        -3.250495         0.784141         0.557188
 C        -2.620707         2.124672         0.355979
 C        -1.254404         1.801623        -0.136474
 O        -2.806189        -0.134369        -0.582381
 C        -1.788854        -0.655433         0.492512
 H         0.828342         0.926299         0.010640
 H        -0.660879        -0.102712         2.872052
 H        -1.413532         1.499696         2.836137
 H        -3.236348        -0.743944         2.377649
 H        -4.350334         0.895645         0.506140
 H        -3.135607         2.771542        -0.449300
 H        -2.567639         2.591318         1.366684
 H        -1.350349         1.146969        -1.102297
 H        -0.412037         2.600085        -0.071714
 H        -1.528477        -1.774172         0.520174
