19
Iteration:  2648
 O         0.669327         0.302985         0.658505
 C        -0.720458         0.636202         0.830345
 C        -1.313087         0.741562         2.215338
 C        -2.546037        -0.167386         1.716053
 C        -3.349410         0.728696         0.703457
 C        -2.686572         2.064364         0.222947
 C        -1.199446         1.844068        -0.081138
 O        -2.858137        -0.217976        -0.473179
 C        -1.821763        -0.574152         0.391345
 H         1.075413         1.228639         0.298819
 H        -0.735155         0.348312         3.021911
 H        -1.712227         1.719429         2.318460
 H        -3.307529        -0.939843         2.327493
 H        -4.450176         0.871566         0.776741
 H        -3.216914         2.517429        -0.614801
 H        -2.775253         2.825439         1.078884
 H        -0.834677         1.697047        -1.126081
 H        -0.495118         2.877552         0.274465
 H        -1.262179        -1.479734         0.140194
