19
Iteration:  3506
 O         0.708216         0.254937         0.735072
 C        -0.744313         0.653729         0.741355
 C        -1.233001         0.704792         2.174509
 C        -2.540896        -0.070206         1.753831
 C        -3.429824         0.682661         0.516184
 C        -2.750283         2.132374         0.338788
 C        -1.237644         1.829477        -0.020024
 O        -2.865618        -0.213742        -0.506586
 C        -1.804415        -0.556341         0.389500
 H         1.494586         0.894287         0.607493
 H        -0.622439         0.137605         2.893289
 H        -1.289869         1.772740         2.603360
 H        -3.065590        -0.769384         2.483106
 H        -4.508384         0.635116         0.644431
 H        -3.054343         2.666087        -0.632989
 H        -2.811871         2.820094         1.222184
 H        -1.028374         1.701405        -1.108176
 H        -0.761741         2.786288         0.146660
 H        -1.329792        -1.511893         0.193324
