19
Iteration:  2096charge 0 multiplicity 1
 O         0.732077         0.268802         0.776101
 C        -0.744352         0.619038         0.748957
 C        -1.274084         0.764189         2.163996
 C        -2.511382        -0.096125         1.729877
 C        -3.337581         0.694108         0.612605
 C        -2.706379         2.053231         0.245434
 C        -1.295115         1.839432        -0.168443
 O        -2.903471        -0.200227        -0.507172
 C        -1.801547        -0.541025         0.464371
 H         1.208912         1.008325         0.537296
 H        -0.663602         0.369398         3.001352
 H        -1.553422         1.856754         2.568506
 H        -3.050262        -0.894895         2.225226
 H        -4.398475         0.745071         0.852826
 H        -3.397920         2.723126        -0.224052
 H        -2.664359         2.436609         1.279830
 H        -1.119572         1.699644        -1.173246
 H        -0.679217         2.707218         0.193221
 H        -1.271163        -1.433492         0.309726
