19
Iteration:  4837charge 0 multiplicity 1
 O         0.673320         0.213121         0.633674
 C        -0.729041         0.629131         0.848745
 C        -1.315286         0.608668         2.355999
 C        -2.555508        -0.047922         1.629940
 C        -3.362354         0.766839         0.500424
 C        -2.787798         2.104291         0.189793
 C        -1.204807         1.914792         0.055501
 O        -2.806469        -0.192818        -0.502188
 C        -1.706782        -0.493382         0.484504
 H         0.780908         0.570959        -0.309403
 H        -0.937027        -0.181607         2.966766
 H        -1.259062         1.587495         2.785997
 H        -3.062703        -0.653356         2.416038
 H        -4.421356         0.502618         0.548303
 H        -3.270640         2.602249        -0.666219
 H        -2.911055         2.791064         1.000160
 H        -0.997373         1.739812        -1.042625
 H        -0.808321         2.828322         0.442515
 H        -1.415169        -1.585850         0.416054
