19
Iteration:  1298charge 0 multiplicity 1
 O         0.562718         0.089966         0.539430
 C        -0.748216         0.625772         0.765830
 C        -1.314286         0.742010         2.195017
 C        -2.521110         0.033165         1.720362
 C        -3.336031         0.713970         0.541726
 C        -2.741206         2.047164         0.249442
 C        -1.275576         2.027156         0.152770
 O        -2.721278        -0.243846        -0.520411
 C        -1.690939        -0.568035         0.479125
 H         1.215687         0.745950         0.599522
 H        -0.847278        -0.052845         2.768191
 H        -1.395838         1.850376         2.528859
 H        -3.188923        -0.460165         2.511530
 H        -4.393280         0.574751         0.485388
 H        -3.174193         2.345064        -0.707564
 H        -3.245419         2.750240         1.083266
 H        -0.953680         2.366029        -0.871546
 H        -0.896756         2.741105         0.898850
 H        -1.426432        -1.547689         0.577223
