19
Iteration:  3817
 O         0.628180         0.354214         0.687218
 C        -0.737740         0.629900         0.752606
 C        -1.299881         0.626413         2.294575
 C        -2.583647        -0.100963         1.704362
 C        -3.350755         0.737980         0.628562
 C        -2.666167         2.080064         0.203172
 C        -1.179305         1.840962        -0.068223
 O        -2.822730        -0.184869        -0.487424
 C        -1.813600        -0.545742         0.436848
 H         1.131021         0.945035         0.231051
 H        -0.865525        -0.131109         2.981329
 H        -1.436908         1.669387         2.659093
 H        -3.216812        -0.623906         2.413380
 H        -4.469562         0.711733         0.694559
 H        -3.221775         2.457501        -0.657836
 H        -2.738477         2.627737         1.154715
 H        -1.016472         1.643248        -1.126511
 H        -0.485888         2.662847         0.089063
 H        -1.369973        -1.578857         0.381030
