19
Iteration:   757
 O         0.598656         0.376342         0.791454
 C        -0.750152         0.690000         0.769081
 C        -1.322986         0.683550         2.225420
 C        -2.452967        -0.105104         1.640955
 C        -3.315116         0.732959         0.632170
 C        -2.656010         2.054470         0.183543
 C        -1.164259         1.863627        -0.121682
 O        -2.924050        -0.227730        -0.405135
 C        -1.786942        -0.575347         0.445178
 H         0.912124         0.162447        -0.192244
 H        -0.797982         0.107239         2.994320
 H        -1.697678         1.596476         2.786349
 H        -3.078668        -0.803326         2.273606
 H        -4.338503         0.636346         0.752697
 H        -3.200890         2.373525        -0.661354
 H        -2.766477         2.933642         0.845466
 H        -0.811870         1.652591        -1.083304
 H        -0.624855         2.735427         0.096657
 H        -1.385245        -1.581827         0.158837
