19
Iteration:  3276
 O         0.638010         0.216574         0.599934
 C        -0.778084         0.597229         0.767678
 C        -1.310235         0.662322         2.232051
 C        -2.544718        -0.003895         1.711033
 C        -3.308854         0.692249         0.532972
 C        -2.819184         2.087492         0.249649
 C        -1.183315         1.890351         0.079490
 O        -2.761133        -0.178893        -0.490179
 C        -1.812902        -0.537158         0.456998
 H         1.288156         0.988975         0.721191
 H        -0.669848         0.090874         2.860910
 H        -1.148510         1.647781         2.690863
 H        -3.210947        -0.688148         2.374381
 H        -4.387868         0.594335         0.596473
 H        -3.349081         2.427227        -0.677219
 H        -2.697033         2.762548         1.045329
 H        -1.002894         1.833933        -1.008063
 H        -0.768072         2.882062         0.512995
 H        -1.374266        -1.495685         0.203122
