19
Iteration:  1747charge 0 multiplicity 1
 O         0.493963         0.222003         0.531674
 C        -0.825098         0.634180         0.776318
 C        -1.325866         0.679549         2.252199
 C        -2.541506        -0.086039         1.734694
 C        -3.288993         0.749043         0.556963
 C        -2.680637         2.091506         0.184854
 C        -1.117615         2.027833         0.190432
 O        -2.842505        -0.317503        -0.455322
 C        -1.660163        -0.564261         0.406998
 H         1.100617         0.879558         0.485231
 H        -0.746113         0.043068         2.852596
 H        -1.530344         1.640904         2.701700
 H        -3.154074        -0.753923         2.377491
 H        -4.374799         0.912190         0.463381
 H        -3.078492         2.254931        -0.770241
 H        -3.144023         2.951362         0.692254
 H        -0.694443         2.243394        -0.719848
 H        -0.697007         2.785242         0.757666
 H        -1.205874        -1.505412         0.145028
