19
Iteration:  2867
 O         0.605396         0.173779         0.629068
 C        -0.746657         0.659148         0.738531
 C        -1.218336         0.662416         2.159111
 C        -2.523376        -0.039081         1.671417
 C        -3.325112         0.721506         0.549874
 C        -2.818409         2.062265         0.197968
 C        -1.227465         1.979352         0.101468
 O        -2.766372        -0.188888        -0.389889
 C        -1.784600        -0.577254         0.469520
 H         1.273994         0.779612         0.560086
 H        -0.649138         0.009792         2.919383
 H        -1.408268         1.728119         2.580447
 H        -3.277849        -0.686313         2.320024
 H        -4.415830         0.639738         0.533792
 H        -3.154473         2.335829        -0.773589
 H        -3.256676         2.766298         0.995654
 H        -0.824668         2.005198        -0.927806
 H        -0.916229         2.956321         0.531760
 H        -1.440903        -1.603176         0.217693
