19
Iteration:   377charge 0 multiplicity 1
 O         0.624282         0.469294         0.535114
 C        -0.727683         0.584562         0.850638
 C        -1.280863         0.595880         2.356876
 C        -2.608411         0.013827         1.785268
 C        -3.387904         0.709930         0.557127
 C        -2.698280         2.060791         0.110214
 C        -1.171820         1.847097        -0.020087
 O        -2.775506        -0.189222        -0.531284
 C        -1.783151        -0.577000         0.516196
 H         1.023045        -0.220972         1.036474
 H        -0.916603        -0.225793         2.889784
 H        -1.305732         1.525976         2.860773
 H        -3.214063        -0.588019         2.531561
 H        -4.526852         0.686075         0.684150
 H        -3.054230         2.404395        -0.947652
 H        -2.930554         2.807731         0.832860
 H        -0.957538         1.593434        -1.075026
 H        -0.624109         2.644275         0.200086
 H        -1.549514        -1.601607         0.482622
