19
Iteration:   208charge 0 multiplicity 1
 O         0.597135         0.354950         0.813036
 C        -0.807996         0.701145         0.748872
 C        -1.320951         0.657560         2.142810
 C        -2.512729        -0.096065         1.711007
 C        -3.293387         0.697936         0.621920
 C        -2.652335         2.039140         0.261402
 C        -1.223117         1.827533        -0.153185
 O        -2.834559        -0.188655        -0.485208
 C        -1.761880        -0.474965         0.483164
 H         0.906372        -0.217141         0.181622
 H        -0.527098         0.190726         2.804208
 H        -1.560325         1.589217         2.706753
 H        -3.122582        -0.741101         2.297516
 H        -4.354765         0.712725         0.632363
 H        -3.169310         2.513459        -0.521026
 H        -2.673477         2.803269         1.189417
 H        -1.258092         1.397974        -1.121208
 H        -0.641453         2.700393        -0.073224
 H        -1.308550        -1.514538         0.310641
