19
Iteration:  3797charge 0 multiplicity 1
 O         0.631405         0.372526         0.668312
 C        -0.779787         0.601976         0.784276
 C        -1.397281         0.708305         2.190618
 C        -2.591851        -0.085344         1.689353
 C        -3.299706         0.716353         0.509512
 C        -2.631472         2.208757         0.365743
 C        -1.223838         1.791670        -0.046232
 O        -2.776688        -0.230071        -0.427593
 C        -1.736903        -0.653411         0.461587
 H         0.758887         0.687511        -0.275304
 H        -0.657918         0.119929         2.685740
 H        -1.536871         1.705238         2.660393
 H        -3.398687        -0.723551         2.154517
 H        -4.424670         0.975230         0.487687
 H        -3.027499         2.599369        -0.511026
 H        -2.734629         2.714181         1.347302
 H        -1.218971         1.559053        -1.106293
 H        -0.537078         2.626580         0.185863
 H        -1.340524        -1.687756         0.506163
