19
Iteration:  1543charge 0 multiplicity 1
 O         0.576063         0.189289         0.683181
 C        -0.712474         0.609225         0.768555
 C        -1.271213         0.696427         2.211791
 C        -2.484929        -0.071453         1.704309
 C        -3.364913         0.720439         0.554430
 C        -2.782640         2.066509         0.284086
 C        -1.250851         1.903992        -0.014032
 O        -2.762339        -0.128957        -0.520777
 C        -1.775824        -0.564561         0.441147
 H         1.245593         0.810695         1.042039
 H        -0.608233         0.091947         2.874467
 H        -1.446572         1.836716         2.741264
 H        -3.100851        -0.708390         2.313421
 H        -4.444315         0.656640         0.678624
 H        -3.133233         2.601571        -0.633920
 H        -3.029009         2.794352         1.086839
 H        -1.197096         1.684128        -1.091595
 H        -0.577827         2.782573         0.242180
 H        -1.390164        -1.532074         0.179285
