19
Iteration:  2082charge 0 multiplicity 1
 O         0.624075         0.331599         0.750250
 C        -0.707873         0.648342         0.731080
 C        -1.348531         0.740306         2.207024
 C        -2.482601        -0.112861         1.697904
 C        -3.291690         0.682345         0.643601
 C        -2.723567         2.039370         0.318348
 C        -1.144274         1.820435        -0.104044
 O        -2.943805        -0.169315        -0.464327
 C        -1.749601        -0.602087         0.408117
 H         1.125026         1.097942         0.312673
 H        -0.635348         0.308879         2.924202
 H        -1.692449         1.779832         2.390361
 H        -3.075140        -0.603133         2.407642
 H        -4.372700         0.680451         0.742746
 H        -3.154775         2.320884        -0.727898
 H        -2.860175         2.915323         1.006868
 H        -1.147661         1.488715        -1.149594
 H        -0.592901         2.768712        -0.021581
 H        -1.477370        -1.633176         0.161565
