19
Iteration:  2905charge 0 multiplicity 1
 O         0.583353         0.392309         0.448258
 C        -0.701395         0.652993         0.863247
 C        -1.336693         0.625269         2.314995
 C        -2.641387        -0.027041         1.681675
 C        -3.312475         0.737748         0.486956
 C        -2.629693         2.036605         0.230253
 C        -1.140549         1.857827         0.061462
 O        -2.825387        -0.256782        -0.401093
 C        -1.825544        -0.607426         0.503006
 H         1.025076         1.233067         0.571996
 H        -0.813913        -0.178191         2.843998
 H        -1.508059         1.642036         2.711740
 H        -3.202872        -0.766614         2.222568
 H        -4.430294         0.769374         0.538780
 H        -3.131606         2.542206        -0.652235
 H        -2.752062         2.691688         1.062462
 H        -0.972336         1.692776        -1.005059
 H        -0.482314         2.688710         0.323037
 H        -1.184905        -1.482373         0.364916
