19
Iteration:  4591charge 0 multiplicity 1
 O         0.612982         0.325216         0.739033
 C        -0.754306         0.581267         0.686458
 C        -1.296433         0.638465         2.204347
 C        -2.585510         0.025425         1.702012
 C        -3.333003         0.674926         0.570131
 C        -2.723690         2.036130         0.202530
 C        -1.163547         1.961619         0.090114
 O        -2.815123        -0.214037        -0.519926
 C        -1.778678        -0.573108         0.470483
 H         0.686048         0.337258        -0.269543
 H        -0.764655        -0.158616         2.731698
 H        -1.269957         1.565611         2.730511
 H        -3.182235        -0.601167         2.399831
 H        -4.431491         0.745277         0.749572
 H        -3.063459         2.636520        -0.627915
 H        -2.952845         2.666083         1.108549
 H        -0.740874         1.995863        -0.963783
 H        -0.567079         2.702185         0.681640
 H        -1.234781        -1.489053         0.280470
