19
Iteration:  4240
 O         0.754170         0.299848         0.692596
 C        -0.697862         0.548073         0.710521
 C        -1.315033         0.733244         2.192555
 C        -2.575115         0.024588         1.668852
 C        -3.371623         0.741745         0.510295
 C        -2.751640         2.099741         0.384418
 C        -1.220537         1.833152         0.012351
 O        -2.842860        -0.309160        -0.529134
 C        -1.799874        -0.503079         0.493577
 H         1.202900         1.024353         0.186255
 H        -0.908130        -0.220196         2.663478
 H        -1.405513         1.655994         2.812188
 H        -3.268994        -0.623694         2.168210
 H        -4.453371         0.604137         0.817084
 H        -3.130870         2.789581        -0.367896
 H        -2.844718         2.640869         1.357884
 H        -1.293040         1.710229        -1.092394
 H        -0.700117         2.691907         0.241235
 H        -1.370217        -1.542367         0.364240
