19
Iteration:  4265charge 0 multiplicity 1
 O         0.555448         0.226364         0.584838
 C        -0.811301         0.625293         0.809759
 C        -1.297641         0.737948         2.215836
 C        -2.550724        -0.096984         1.735591
 C        -3.322442         0.705444         0.508498
 C        -2.705117         2.091981         0.303837
 C        -1.219463         1.925278        -0.019957
 O        -2.726758        -0.199688        -0.487013
 C        -1.765355        -0.581503         0.535256
 H         1.084765         0.938856         0.442429
 H        -0.827615        -0.039489         2.815999
 H        -1.298100         1.788077         2.594397
 H        -3.191311        -0.778939         2.361374
 H        -4.413054         0.658492         0.604998
 H        -3.201411         2.656036        -0.602530
 H        -2.816058         2.697038         1.234099
 H        -1.062660         1.720302        -1.083919
 H        -0.664661         2.874836         0.275853
 H        -1.181212        -1.521424         0.164211
