19
Iteration:  4988
 O         0.615379         0.282646         0.624997
 C        -0.789046         0.621816         0.869048
 C        -1.210495         0.627928         2.262578
 C        -2.563317         0.065843         1.679255
 C        -3.378238         0.687929         0.415482
 C        -2.775721         2.152131         0.332042
 C        -1.188535         1.882691         0.116449
 O        -2.703059        -0.220497        -0.560179
 C        -1.825152        -0.588528         0.510426
 H         0.712939         0.209558        -0.419421
 H        -0.616674        -0.065382         2.862246
 H        -1.232033         1.643933         2.790005
 H        -3.271199        -0.562284         2.307271
 H        -4.461790         0.461373         0.260278
 H        -3.185130         2.665855        -0.588351
 H        -3.032248         2.687414         1.280610
 H        -1.030345         1.718522        -0.934142
 H        -0.678937         2.785726         0.321092
 H        -1.406769        -1.618692         0.301834
