19
Iteration:   830charge 0 multiplicity 1
 O         0.488971         0.261230         0.459694
 C        -0.748912         0.680325         0.824992
 C        -1.323220         0.650403         2.328825
 C        -2.596912        -0.027816         1.735679
 C        -3.307816         0.739605         0.492577
 C        -2.721419         2.081185         0.179067
 C        -1.200562         1.893650         0.052300
 O        -2.700154        -0.288585        -0.441873
 C        -1.741337        -0.541546         0.573137
 H         1.198184         1.028569         0.551331
 H        -0.702570        -0.007160         2.976288
 H        -1.384887         1.641908         2.798954
 H        -3.213617        -0.603625         2.325153
 H        -4.457367         0.631503         0.471723
 H        -3.042946         2.521015        -0.850632
 H        -3.078257         2.904479         0.870858
 H        -0.980615         1.706085        -1.047448
 H        -0.459791         2.773415         0.304952
 H        -1.196233        -1.559209         0.510782
