19
Iteration:  1197charge 0 multiplicity 1
 O         0.592993         0.197848         0.678244
 C        -0.718266         0.663863         0.765940
 C        -1.346808         0.728763         2.216453
 C        -2.547849        -0.049876         1.691764
 C        -3.347141         0.686620         0.581198
 C        -2.729222         2.107581         0.249475
 C        -1.210565         1.881637        -0.045041
 O        -2.874280        -0.222187        -0.466202
 C        -1.636983        -0.527977         0.467694
 H         1.260862         0.922498         0.349556
 H        -0.838753         0.168906         3.059767
 H        -1.502004         1.739662         2.762310
 H        -2.924752        -0.842434         2.286236
 H        -4.435631         0.701203         0.556747
 H        -3.287358         2.487674        -0.568518
 H        -2.750255         2.690897         1.236638
 H        -1.067424         1.586402        -1.139962
 H        -0.716564         2.830724         0.109214
 H        -1.174892        -1.472852         0.264410
