19
Iteration:    28charge 0 multiplicity 1
 O         0.650702         0.558784         0.697883
 C        -0.756346         0.593448         0.785845
 C        -1.422461         0.714170         2.246686
 C        -2.531050        -0.142437         1.680345
 C        -3.293312         0.736490         0.619798
 C        -2.591748         2.179714         0.311186
 C        -1.206624         1.660900        -0.218987
 O        -2.813810        -0.178166        -0.462170
 C        -1.834119        -0.623966         0.476111
 H         1.015643        -0.307616         0.788025
 H        -0.862995        -0.012971         2.888439
 H        -1.748813         1.679438         2.704781
 H        -3.101741        -0.852732         2.320670
 H        -4.400354         0.752179         0.674542
 H        -3.263266         2.923804        -0.388842
 H        -2.460864         2.748710         1.275965
 H        -1.422129         1.163904        -1.265507
 H        -0.380535         2.399011        -0.470690
 H        -1.509980        -1.672823         0.329061
