19
Iteration:   346
 O         0.597577         0.409248         0.662944
 C        -0.756549         0.622337         0.762872
 C        -1.383694         0.684936         2.136664
 C        -2.581454        -0.070299         1.640986
 C        -3.341720         0.742351         0.557347
 C        -2.605415         2.171856         0.356429
 C        -1.219556         1.795707        -0.143681
 O        -2.822041        -0.287523        -0.432438
 C        -1.690169        -0.584932         0.498855
 H         1.117182         0.375431         1.560858
 H        -0.893503         0.059772         2.918221
 H        -1.454832         1.679631         2.637171
 H        -3.124405        -0.737213         2.300509
 H        -4.493571         0.774429         0.586293
 H        -3.099515         2.914970        -0.378203
 H        -2.632156         2.700499         1.294663
 H        -1.451400         1.362851        -1.103520
 H        -0.466765         2.564924        -0.191836
 H        -1.342605        -1.668055         0.405400
