19
Iteration:   758
 O         0.598852         0.382915         0.793620
 C        -0.753891         0.688738         0.762644
 C        -1.329927         0.688466         2.228619
 C        -2.450645        -0.111774         1.637211
 C        -3.316628         0.734726         0.635406
 C        -2.650785         2.057606         0.192606
 C        -1.150589         1.850627        -0.123695
 O        -2.929453        -0.226013        -0.401389
 C        -1.782412        -0.581948         0.438149
 H         0.947131         0.199056        -0.194559
 H        -0.807068         0.126573         2.986119
 H        -1.694542         1.608264         2.753510
 H        -3.117288        -0.823908         2.287131
 H        -4.330968         0.653972         0.774711
 H        -3.219094         2.406195        -0.707060
 H        -2.798144         2.927320         0.858808
 H        -0.833477         1.628642        -1.111322
 H        -0.636853         2.715209         0.115501
 H        -1.378600        -1.549283         0.158768
