19
Iteration:  2031charge 0 multiplicity 1
 O         0.675664         0.376768         0.566894
 C        -0.721493         0.593062         0.830725
 C        -1.171441         0.649172         2.250385
 C        -2.638711         0.118265         1.685009
 C        -3.331790         0.740651         0.470844
 C        -2.782927         2.110685         0.170432
 C        -1.262545         1.908655         0.156721
 O        -2.738280        -0.356238        -0.481103
 C        -1.855779        -0.633228         0.576592
 H         0.572129         0.177904        -0.461661
 H        -0.808713        -0.288767         2.627629
 H        -0.988301         1.549655         2.921823
 H        -3.132451        -0.476874         2.459559
 H        -4.427125         0.669943         0.490647
 H        -3.026225         2.637021        -0.673832
 H        -3.073812         2.793028         0.979205
 H        -1.063659         1.827472        -0.887175
 H        -0.755102         2.860244         0.506006
 H        -1.489453        -1.609258         0.417427
