19
Iteration:  1393charge 0 multiplicity 1
 O         0.688395         0.336690         0.736606
 C        -0.681098         0.581557         0.769457
 C        -1.327458         0.706517         2.178208
 C        -2.582687        -0.049856         1.659437
 C        -3.335926         0.708613         0.549816
 C        -2.675144         2.054209         0.339092
 C        -1.183161         1.853999        -0.028189
 O        -2.871122        -0.232648        -0.494940
 C        -1.836971        -0.548693         0.428634
 H         1.063533         1.199531         0.243606
 H        -0.909037        -0.099889         2.838450
 H        -1.385438         1.681919         2.664495
 H        -3.107896        -0.597406         2.395258
 H        -4.448304         0.843172         0.642441
 H        -3.231604         2.553464        -0.527256
 H        -2.726558         2.669596         1.254646
 H        -1.114562         1.664295        -1.157916
 H        -0.600449         2.742578         0.159043
 H        -1.520778        -1.686675         0.303172
