19
Iteration:  2350charge 0 multiplicity 1
 O         0.642224         0.394195         0.620312
 C        -0.735372         0.635969         0.793619
 C        -1.269531         0.583621         2.160595
 C        -2.581341         0.058639         1.658588
 C        -3.352546         0.743659         0.533714
 C        -2.747298         2.100052         0.251344
 C        -1.209047         1.816317         0.037820
 O        -2.807436        -0.293744        -0.463685
 C        -1.760401        -0.541736         0.577617
 H         0.837270         0.844695        -0.230146
 H        -0.755035        -0.248878         2.745243
 H        -1.147151         1.471727         2.806660
 H        -3.292352        -0.677326         2.241225
 H        -4.407613         0.558999         0.790274
 H        -3.268100         2.632859        -0.601709
 H        -2.729140         2.603595         1.295863
 H        -1.152841         1.600246        -1.010712
 H        -0.626041         2.719160         0.150429
 H        -1.323790        -1.552037         0.586352
