19
Iteration:  2812charge 0 multiplicity 1
 O         0.665270         0.407421         0.510435
 C        -0.784492         0.569199         0.753889
 C        -1.394078         0.692442         2.258875
 C        -2.604705        -0.080085         1.730278
 C        -3.316033         0.719197         0.560664
 C        -2.638821         2.184424         0.360352
 C        -1.210326         1.748200        -0.071703
 O        -2.812003        -0.204191        -0.486958
 C        -1.726803        -0.635820         0.533550
 H         1.070975         1.136782         1.013429
 H        -0.946963        -0.076376         2.909818
 H        -1.642666         1.726062         2.581900
 H        -3.231726        -0.877465         2.340482
 H        -4.405135         0.755371         0.532302
 H        -3.070953         2.782818        -0.429222
 H        -2.752510         2.801503         1.326147
 H        -1.088695         1.445580        -1.121476
 H        -0.592553         2.600463         0.162055
 H        -1.262890        -1.602265         0.229730
