19
Iteration:  3550charge 0 multiplicity 1
 O         0.560537         0.281592         0.498868
 C        -0.740659         0.665096         0.834141
 C        -1.350343         0.694665         2.262555
 C        -2.635410        -0.121223         1.756648
 C        -3.291149         0.735434         0.526569
 C        -2.667711         2.067625         0.265015
 C        -1.161957         1.831951         0.003262
 O        -2.784636        -0.195491        -0.503466
 C        -1.749787        -0.534541         0.566517
 H         0.946123         1.179194         0.439001
 H        -0.647347         0.073511         2.875774
 H        -1.447422         1.680018         2.837597
 H        -3.269886        -0.827945         2.367850
 H        -4.372795         0.753688         0.328537
 H        -3.372620         2.586111        -0.493925
 H        -2.888130         2.649728         1.184888
 H        -0.900423         1.570418        -1.067636
 H        -0.452297         2.665117         0.115785
 H        -1.222584        -1.463668         0.344742
