19
Iteration:  4348
 O         0.687458         0.295362         0.578760
 C        -0.803882         0.614409         0.780819
 C        -1.319559         0.653578         2.191812
 C        -2.552648        -0.025248         1.744204
 C        -3.300352         0.755530         0.481543
 C        -2.747583         2.122252         0.295805
 C        -1.220029         1.875919         0.004229
 O        -2.839245        -0.274458        -0.444958
 C        -1.791898        -0.599712         0.459368
 H         1.253165         0.881753         1.142688
 H        -0.578359         0.140411         2.851450
 H        -1.353962         1.651145         2.643892
 H        -3.236231        -0.608491         2.326199
 H        -4.420104         0.742533         0.592444
 H        -3.173521         2.690942        -0.517883
 H        -2.862502         2.886806         1.135062
 H        -0.956009         1.693658        -1.083618
 H        -0.491898         2.677193         0.358694
 H        -1.300240        -1.542711         0.348393
