19
Iteration:   172charge 0 multiplicity 1
 O         0.734228         0.475423         0.826162
 C        -0.719068         0.588013         0.742811
 C        -1.331661         0.670396         2.207378
 C        -2.559813        -0.087423         1.709884
 C        -3.351986         0.723829         0.572000
 C        -2.648634         2.059163         0.266244
 C        -1.230915         1.753093        -0.124223
 O        -2.914532        -0.175949        -0.478927
 C        -1.833457        -0.561827         0.416486
 H         1.054696         0.041920         0.083552
 H        -0.569575         0.130844         2.824591
 H        -1.612493         1.684998         2.536385
 H        -3.158979        -0.657346         2.433271
 H        -4.414496         0.721903         0.680325
 H        -3.253765         2.656310        -0.426919
 H        -2.544994         2.657848         1.242798
 H        -1.102245         1.493859        -1.187697
 H        -0.473194         2.622983        -0.033985
 H        -1.311883        -1.565199         0.249478
