19
Iteration:  2582
 O         0.620821         0.404442         0.499149
 C        -0.773671         0.605170         0.829563
 C        -1.303218         0.626496         2.299005
 C        -2.617879         0.026809         1.723682
 C        -3.318315         0.771238         0.521616
 C        -2.710351         2.095801         0.196408
 C        -1.211421         1.832864         0.068252
 O        -2.717813        -0.254444        -0.409588
 C        -1.775592        -0.607483         0.519383
 H         0.621297         0.420906        -0.427727
 H        -0.838843        -0.137869         2.909565
 H        -1.338704         1.564349         2.847839
 H        -3.291661        -0.679020         2.411884
 H        -4.408486         0.645289         0.525207
 H        -3.132504         2.315225        -0.750588
 H        -2.925282         2.686529         1.080000
 H        -0.951605         1.680681        -0.981731
 H        -0.637652         2.786032         0.304769
 H        -1.389918        -1.571894         0.195615
