19
Iteration:  3935
 O         0.583920         0.322751         0.730545
 C        -0.779564         0.627778         0.763799
 C        -1.250636         0.694894         2.229899
 C        -2.534148        -0.089806         1.693501
 C        -3.309805         0.730806         0.596484
 C        -2.726799         2.069336         0.286233
 C        -1.199637         1.814058        -0.064329
 O        -2.834680        -0.205463        -0.479169
 C        -1.805132        -0.549545         0.424088
 H         1.064324         0.998253         0.300375
 H        -0.768512        -0.136420         2.818337
 H        -1.240392         1.700399         2.613172
 H        -3.146738        -0.719247         2.293793
 H        -4.315463         1.018111         0.526954
 H        -3.105471         2.427790        -0.734067
 H        -2.818111         2.787056         1.083631
 H        -0.940555         1.707971        -1.158218
 H        -0.468452         2.652704         0.247545
 H        -1.361108        -1.571143         0.274424
