19
Iteration:   632charge 0 multiplicity 1
 O         0.730734         0.364821         0.917837
 C        -0.691719         0.600315         0.682175
 C        -1.279113         0.707477         2.104966
 C        -2.566584        -0.034042         1.614988
 C        -3.365848         0.747810         0.647948
 C        -2.752332         2.072117         0.220741
 C        -1.232614         1.719638        -0.117632
 O        -2.877879        -0.154423        -0.427923
 C        -1.804662        -0.583478         0.476367
 H         1.275306         0.881296         0.189763
 H        -0.546271         0.078515         2.734274
 H        -1.403960         1.782489         2.417092
 H        -3.114783        -0.662050         2.221364
 H        -4.542348         0.671050         0.672108
 H        -3.348800         2.358291        -0.583857
 H        -2.874010         2.726963         1.121541
 H        -1.174560         1.288139        -1.171792
 H        -0.651880         2.693790         0.117836
 H        -1.325383        -1.624448         0.337483
