19
Iteration:  4487
 O         0.626465         0.218290         0.760574
 C        -0.731930         0.695102         0.740195
 C        -1.256466         0.689003         2.190205
 C        -2.545106        -0.063558         1.674251
 C        -3.381117         0.682786         0.550185
 C        -2.794673         2.086361         0.281750
 C        -1.239414         1.886498         0.024845
 O        -2.776467        -0.147616        -0.531923
 C        -1.725125        -0.506228         0.470489
 H         0.933374        -0.165973        -0.115456
 H        -0.629497         0.065044         2.862514
 H        -1.215954         1.652203         2.788636
 H        -3.129286        -0.689338         2.382137
 H        -4.461651         0.736147         0.517211
 H        -3.341661         2.517649        -0.635992
 H        -2.929271         2.615888         1.228604
 H        -1.097360         1.618567        -0.990070
 H        -0.639368         2.773369         0.106941
 H        -1.377565        -1.573011         0.455364
