19
Iteration:  3601
 O         0.624738         0.245889         0.615445
 C        -0.704111         0.626353         0.695832
 C        -1.206121         0.621614         2.187797
 C        -2.546736         0.069934         1.667831
 C        -3.376755         0.689993         0.534639
 C        -2.734033         2.039712         0.179494
 C        -1.231876         1.950039         0.109989
 O        -2.831598        -0.221416        -0.411888
 C        -1.837330        -0.569856         0.528034
 H         1.066669         0.999973         0.902066
 H        -0.698831        -0.019941         2.848813
 H        -1.188232         1.637501         2.623594
 H        -3.111517        -0.752151         2.238519
 H        -4.468567         0.464038         0.470863
 H        -3.000525         2.338492        -0.810721
 H        -3.057974         2.705850         1.004269
 H        -0.847955         2.174598        -0.884526
 H        -0.651096         2.823322         0.499714
 H        -1.467017        -1.585191         0.442918
