19
Iteration:  4656
 O         0.606615         0.393672         0.782281
 C        -0.813436         0.579848         0.776633
 C        -1.175909         0.579331         2.242179
 C        -2.605433        -0.086946         1.701422
 C        -3.375407         0.739087         0.534961
 C        -2.690762         2.115447         0.222814
 C        -1.212901         1.826067        -0.043810
 O        -2.754899        -0.142432        -0.526287
 C        -1.824036        -0.534745         0.486577
 H         1.065439         0.449921        -0.182639
 H        -0.595288        -0.258054         2.767534
 H        -1.019470         1.491064         2.842676
 H        -3.324696        -0.593482         2.405620
 H        -4.496528         0.706043         0.666831
 H        -3.182306         2.528521        -0.706152
 H        -2.996261         2.724309         1.161860
 H        -1.215343         1.585499        -1.157295
 H        -0.423321         2.585453         0.155167
 H        -1.441104        -1.533556         0.345073
