19
Iteration:  4798
 O         0.651205         0.396635         0.805298
 C        -0.676908         0.578240         0.778768
 C        -1.347249         0.599454         2.156678
 C        -2.565058        -0.116935         1.691862
 C        -3.321132         0.694534         0.595859
 C        -2.634602         2.161836         0.223257
 C        -1.188631         1.938324        -0.073574
 O        -2.886766        -0.204086        -0.460696
 C        -1.849609        -0.645885         0.388735
 H         0.967552         0.634237        -0.153355
 H        -0.649724        -0.059323         2.810149
 H        -1.486821         1.571507         2.736641
 H        -3.239703        -0.774086         2.258112
 H        -4.408421         0.856906         0.694801
 H        -3.172820         2.662604        -0.605086
 H        -2.728165         2.827341         1.153191
 H        -0.676912         1.999710        -1.049892
 H        -0.639690         2.665320         0.636338
 H        -1.575542        -1.665331         0.308197
