19
Iteration:  2388
 O         0.618566         0.417759         0.724279
 C        -0.745222         0.639724         0.766585
 C        -1.302362         0.688859         2.154492
 C        -2.540702        -0.137665         1.681443
 C        -3.322660         0.714470         0.651287
 C        -2.694225         2.113677         0.325319
 C        -1.254354         1.789196        -0.084595
 O        -2.810906        -0.186911        -0.482426
 C        -1.779049        -0.591970         0.466137
 H         1.037664         0.272774        -0.233893
 H        -0.590036         0.180203         2.782652
 H        -1.599961         1.705806         2.455051
 H        -3.103369        -0.753217         2.337538
 H        -4.435480         0.803477         0.767343
 H        -3.157996         2.740711        -0.443617
 H        -2.774255         2.611678         1.248968
 H        -1.121601         1.435193        -1.172945
 H        -0.510542         2.650792        -0.089937
 H        -1.380732        -1.616581         0.396612
