19
Iteration:  1734charge 0 multiplicity 1
 O         0.534555         0.221490         0.442366
 C        -0.765375         0.674173         0.790946
 C        -1.354461         0.594653         2.282098
 C        -2.561102        -0.092722         1.687859
 C        -3.258315         0.701582         0.548379
 C        -2.673130         2.116212         0.077966
 C        -1.177484         2.032580         0.170229
 O        -2.834802        -0.232458        -0.435877
 C        -1.741778        -0.562329         0.550905
 H         1.112458         1.022734         0.844649
 H        -0.763262        -0.070072         2.891828
 H        -1.442648         1.469734         2.770123
 H        -3.181967        -0.741702         2.388532
 H        -4.364953         0.696327         0.719382
 H        -3.048504         2.265666        -0.954542
 H        -2.985057         2.872352         0.814981
 H        -0.656699         2.084051        -0.798523
 H        -0.844398         2.751838         0.928091
 H        -1.022598        -1.435134         0.419081
