19
Iteration:  1274
 O         0.557719         0.239969         0.512136
 C        -0.754513         0.661651         0.872818
 C        -1.256326         0.636664         2.311698
 C        -2.581552        -0.100476         1.704247
 C        -3.344124         0.712148         0.488596
 C        -2.765164         2.123201         0.201647
 C        -1.129290         1.901948         0.039291
 O        -2.781765        -0.201564        -0.468273
 C        -1.740734        -0.513754         0.540645
 H         1.091282         1.019600         0.386465
 H        -0.703613        -0.179321         2.882982
 H        -1.545977         1.684319         2.746469
 H        -3.325669        -0.637020         2.244130
 H        -4.424293         0.518706         0.521373
 H        -3.126109         2.431783        -0.729514
 H        -3.145381         2.785399         1.004506
 H        -0.907200         1.720266        -1.073401
 H        -0.588113         2.777215         0.397290
 H        -1.254820        -1.479288         0.447612
