19
Iteration:  2941charge 0 multiplicity 1
 O         0.598398         0.238045         0.704070
 C        -0.757494         0.607091         0.770631
 C        -1.252788         0.689270         2.150933
 C        -2.496505        -0.003231         1.668119
 C        -3.370063         0.669934         0.552643
 C        -2.744779         2.067424         0.307103
 C        -1.305566         1.829663        -0.044616
 O        -2.742529        -0.139268        -0.463478
 C        -1.756685        -0.553983         0.492877
 H         1.228369         0.939626         0.563541
 H        -0.734203         0.116007         2.909655
 H        -1.190197         1.631169         2.630338
 H        -3.159683        -0.511942         2.253598
 H        -4.424720         0.882809         0.426872
 H        -3.379434         2.609436        -0.407424
 H        -2.859312         2.556889         1.286335
 H        -1.231393         1.601176        -1.135134
 H        -0.657442         2.764772         0.111375
 H        -1.453664        -1.533694         0.179094
