19
Iteration:  3215charge 0 multiplicity 1
 O         0.589544         0.312720         0.614102
 C        -0.747139         0.673876         0.754213
 C        -1.373803         0.666383         2.283664
 C        -2.546467        -0.119502         1.680897
 C        -3.304592         0.750264         0.557157
 C        -2.617491         2.069313         0.326956
 C        -1.243831         1.829939        -0.086086
 O        -2.793685        -0.153992        -0.466786
 C        -1.788756        -0.564446         0.455745
 H         1.089101         0.799437         1.253513
 H        -0.664023        -0.087029         2.687593
 H        -1.474096         1.598354         2.842637
 H        -3.120948        -0.839135         2.134548
 H        -4.409431         0.660994         0.544084
 H        -3.214228         2.450042        -0.489520
 H        -2.729635         2.872713         1.093198
 H        -1.166769         1.534045        -1.141749
 H        -0.629059         2.660717         0.115655
 H        -1.326470        -1.541429         0.366902
