19
Iteration:   942
 O         0.688947         0.357388         0.623661
 C        -0.776838         0.597737         0.789215
 C        -1.413157         0.734974         2.264360
 C        -2.539666        -0.065314         1.684305
 C        -3.313083         0.762415         0.540935
 C        -2.665161         2.031827         0.366471
 C        -1.214831         1.757193        -0.122838
 O        -2.797166        -0.216198        -0.468042
 C        -1.814146        -0.578307         0.471749
 H         1.066337         1.182983         0.572491
 H        -0.867859         0.244901         3.068187
 H        -1.426612         1.770906         2.606524
 H        -3.146185        -0.583067         2.240584
 H        -4.380636         0.635584         0.574514
 H        -3.222963         2.641536        -0.325598
 H        -2.724498         2.582448         1.403309
 H        -1.142416         1.578564        -1.153783
 H        -0.580037         2.685831        -0.128448
 H        -1.375271        -1.574462         0.159276
