19
Iteration:  4526charge 0 multiplicity 1
 O         0.626316         0.386347         0.691449
 C        -0.778059         0.594347         0.741293
 C        -1.364107         0.685840         2.169024
 C        -2.605387        -0.082485         1.711671
 C        -3.338445         0.734932         0.521380
 C        -2.627228         2.078803         0.312068
 C        -1.120373         1.888087         0.023994
 O        -2.821132        -0.209345        -0.496031
 C        -1.795784        -0.643976         0.505798
 H         0.988354         0.627399        -0.112554
 H        -0.718948        -0.020836         2.670374
 H        -1.597657         1.692241         2.502392
 H        -3.132472        -0.843072         2.332207
 H        -4.446500         0.726965         0.562845
 H        -3.081443         2.787990        -0.360790
 H        -2.742448         2.674528         1.235881
 H        -1.109802         1.651670        -1.112525
 H        -0.529440         2.770043         0.356758
 H        -1.336182        -1.649166         0.417634
