19
Iteration:  1902charge 0 multiplicity 1
 O         0.613448         0.334415         0.500582
 C        -0.761679         0.633002         0.820148
 C        -1.363916         0.605954         2.353945
 C        -2.603902        -0.049142         1.730893
 C        -3.302807         0.696555         0.535137
 C        -2.697203         2.098881         0.195868
 C        -1.138376         1.928465         0.094946
 O        -2.756959        -0.256955        -0.504202
 C        -1.793345        -0.525826         0.505883
 H         0.764244         0.593005        -0.462252
 H        -0.823890         0.013440         3.063379
 H        -1.459948         1.546222         2.848185
 H        -3.223728        -0.692573         2.376763
 H        -4.404512         0.678107         0.565211
 H        -3.135049         2.550509        -0.725248
 H        -2.946458         2.759616         1.075749
 H        -0.995999         1.709674        -0.993795
 H        -0.553455         2.792749         0.399776
 H        -1.362640        -1.529913         0.505848
