19
Iteration:  2086
 O         0.650827         0.318407         0.762243
 C        -0.707333         0.637544         0.733534
 C        -1.326968         0.728845         2.197096
 C        -2.499233        -0.096361         1.705866
 C        -3.279586         0.667846         0.631417
 C        -2.728887         2.045004         0.292039
 C        -1.174043         1.822619        -0.126280
 O        -2.952631        -0.161678        -0.487718
 C        -1.760839        -0.589580         0.428646
 H         1.136856         1.071377         0.383508
 H        -0.605751         0.459822         2.989780
 H        -1.722990         1.804217         2.416575
 H        -3.097951        -0.721975         2.436459
 H        -4.359971         0.659082         0.886540
 H        -3.180696         2.402868        -0.581344
 H        -2.808785         2.755774         1.134478
 H        -1.138873         1.576744        -1.167155
 H        -0.624908         2.790503        -0.004459
 H        -1.422328        -1.586588         0.206724
