19
Iteration:  4704
 O         0.644666         0.324624         0.639906
 C        -0.713123         0.624473         0.847091
 C        -1.309361         0.654320         2.224688
 C        -2.626885        -0.034695         1.738644
 C        -3.382955         0.673077         0.541472
 C        -2.670396         2.042437         0.209798
 C        -1.053111         1.915763         0.136523
 O        -2.921766        -0.288045        -0.550258
 C        -1.774594        -0.458419         0.441355
 H         0.892356         0.583854        -0.225109
 H        -0.725127         0.116589         2.883377
 H        -1.613400         1.569367         2.706714
 H        -2.974338        -0.830092         2.354638
 H        -4.467783         0.823357         0.583870
 H        -2.978944         2.408363        -0.755069
 H        -2.824708         2.783818         0.973802
 H        -0.843587         2.110549        -1.063114
 H        -0.578161         2.685842         0.720539
 H        -1.465934        -1.528249         0.152309
