19
Iteration:    39
 O         0.664975         0.571980         0.739715
 C        -0.743095         0.659861         0.754678
 C        -1.356303         0.670626         2.229227
 C        -2.566740        -0.067557         1.721659
 C        -3.382622         0.672652         0.556374
 C        -2.545924         2.047062         0.306196
 C        -1.169171         1.694586        -0.243577
 O        -2.881080        -0.158323        -0.464306
 C        -1.850989        -0.603656         0.471004
 H         0.872725        -0.290941         0.910064
 H        -0.610039         0.094856         2.841710
 H        -1.400322         1.586991         2.883964
 H        -3.076745        -0.786963         2.403484
 H        -4.490205         0.730849         0.596651
 H        -3.197190         2.851060        -0.346354
 H        -2.341359         2.505962         1.318677
 H        -1.210071         1.197204        -1.318559
 H        -0.499880         2.618008        -0.164977
 H        -1.588753        -1.677363         0.357888
