19
Iteration:  1882
 O         0.545053         0.180213         0.615603
 C        -0.732719         0.632068         0.777502
 C        -1.259770         0.689444         2.160288
 C        -2.572126        -0.073655         1.687613
 C        -3.319935         0.734798         0.522449
 C        -2.815434         2.076966         0.243082
 C        -1.235911         1.976915         0.121227
 O        -2.716046        -0.191203        -0.460743
 C        -1.705763        -0.543121         0.548287
 H         0.699735         0.271963        -0.268707
 H        -0.627544        -0.093399         2.737488
 H        -1.201412         1.633661         2.845508
 H        -3.202181        -0.727691         2.323457
 H        -4.423400         0.711254         0.485678
 H        -3.200120         2.339139        -0.843106
 H        -3.221466         2.972914         0.793873
 H        -0.804692         2.165524        -0.894640
 H        -0.835834         2.769400         0.718157
 H        -1.121503        -1.475378         0.341959
