19
Iteration:    87
 O         0.590725         0.281926         0.463396
 C        -0.739616         0.604541         0.805359
 C        -1.254238         0.700342         2.276473
 C        -2.565005        -0.054245         1.741352
 C        -3.321101         0.730217         0.504593
 C        -2.745771         2.060222         0.066424
 C        -1.178125         1.969385         0.130881
 O        -2.797393        -0.253382        -0.448728
 C        -1.810800        -0.576941         0.544360
 H         1.199642         0.194491         1.311073
 H        -0.673459         0.131565         3.100656
 H        -1.326796         1.734582         2.716510
 H        -3.240356        -0.580434         2.402953
 H        -4.399594         0.816922         0.523862
 H        -3.180845         2.237327        -0.838793
 H        -3.131573         2.844158         0.807315
 H        -0.791977         2.119386        -0.808349
 H        -0.909834         2.742957         0.804524
 H        -1.239089        -1.587416         0.338074
