19
Iteration:  2431
 O         0.650665         0.271624         0.687628
 C        -0.699499         0.725041         0.765319
 C        -1.199502         0.623842         2.189631
 C        -2.492387        -0.058320         1.682745
 C        -3.390279         0.787488         0.578972
 C        -2.766330         2.021739         0.167200
 C        -1.199805         2.008659         0.085355
 O        -2.873138        -0.334078        -0.432329
 C        -1.813706        -0.536584         0.466144
 H         0.799166         0.299001        -0.289829
 H        -0.642939        -0.126780         2.790389
 H        -1.343247         1.622737         2.683769
 H        -3.113080        -0.763090         2.285606
 H        -4.507905         0.692826         0.641280
 H        -3.316548         2.367022        -0.704495
 H        -2.903745         2.890592         0.790213
 H        -0.907470         1.984904        -1.020317
 H        -0.847652         2.991696         0.434063
 H        -1.292913        -1.509424         0.525174
