19
Iteration:  2583charge 0 multiplicity 1
 O         0.618042         0.399671         0.502677
 C        -0.781932         0.605089         0.829700
 C        -1.292232         0.624359         2.292840
 C        -2.617516         0.026006         1.729644
 C        -3.316624         0.773228         0.505765
 C        -2.718840         2.098770         0.201557
 C        -1.206252         1.844008         0.061249
 O        -2.713525        -0.257281        -0.408215
 C        -1.776402        -0.605942         0.526241
 H         0.618219         0.442701        -0.472253
 H        -0.837616        -0.124222         2.926852
 H        -1.350152         1.545232         2.901470
 H        -3.270326        -0.709957         2.404630
 H        -4.423938         0.661763         0.538880
 H        -3.097578         2.326255        -0.774400
 H        -2.942415         2.681580         1.091283
 H        -0.974629         1.696154        -0.983044
 H        -0.646763         2.728775         0.316486
 H        -1.399851        -1.591528         0.217152
