19
Iteration:  4031
 O         0.608754         0.222886         0.569226
 C        -0.694516         0.646578         0.807472
 C        -1.389990         0.704472         2.278056
 C        -2.593889        -0.037242         1.746595
 C        -3.339010         0.726702         0.501510
 C        -2.741187         2.089993         0.283279
 C        -1.141425         1.851652         0.018104
 O        -2.742858        -0.209286        -0.485749
 C        -1.758843        -0.490820         0.494109
 H         0.743849         0.439993        -0.344965
 H        -0.871597         0.051643         3.014849
 H        -1.488844         1.747106         2.560366
 H        -3.055285        -0.862319         2.288986
 H        -4.462220         0.589679         0.630940
 H        -3.232773         2.527662        -0.562934
 H        -2.923242         2.560805         1.298244
 H        -0.994446         1.845480        -1.104493
 H        -0.701629         2.785985         0.323962
 H        -1.332800        -1.484204         0.449432
