19
Iteration:  4663charge 0 multiplicity 1
 O         0.623401         0.415279         0.794960
 C        -0.786456         0.553018         0.740553
 C        -1.221172         0.523122         2.240556
 C        -2.555680        -0.055172         1.744407
 C        -3.323746         0.751502         0.537694
 C        -2.711516         2.231934         0.204407
 C        -1.233850         1.832921        -0.026454
 O        -2.820761        -0.185944        -0.534453
 C        -1.823648        -0.597779         0.459641
 H         0.942172         0.515589        -0.153181
 H        -0.754027        -0.269159         2.864086
 H        -1.015842         1.537238         2.692301
 H        -3.176074        -0.658008         2.437817
 H        -4.399317         0.566577         0.515711
 H        -3.319535         2.511077        -0.663696
 H        -2.823422         2.945980         1.020515
 H        -0.861584         1.545110        -1.013471
 H        -0.596879         2.674281         0.306519
 H        -1.343663        -1.590941         0.458434
