19
Iteration:  1550
 O         0.614317         0.188799         0.623433
 C        -0.762555         0.601505         0.770335
 C        -1.305193         0.701511         2.252336
 C        -2.541624        -0.079241         1.729343
 C        -3.299952         0.718907         0.541057
 C        -2.816915         2.110959         0.238715
 C        -1.185966         1.884359        -0.011473
 O        -2.755441        -0.156029        -0.500517
 C        -1.799235        -0.527432         0.464118
 H         1.158565         0.880989         0.859431
 H        -0.633104         0.104980         2.835373
 H        -1.428798         1.558017         2.692781
 H        -3.136324        -0.774246         2.415272
 H        -4.390860         0.695958         0.687808
 H        -3.199653         2.561086        -0.651198
 H        -3.063712         2.604486         1.211126
 H        -1.033283         1.852980        -1.098059
 H        -0.668205         2.787390         0.480502
 H        -1.185624        -1.411655         0.219517
