19
Iteration:   573charge 0 multiplicity 1
 O         0.664756         0.227860         0.531128
 C        -0.746884         0.625272         0.810038
 C        -1.295983         0.687054         2.281468
 C        -2.630729         0.116619         1.729681
 C        -3.341986         0.704505         0.462501
 C        -2.836780         2.098356         0.144148
 C        -1.233096         1.972374         0.114317
 O        -2.675071        -0.271079        -0.463776
 C        -1.760775        -0.604036         0.594517
 H         0.905814        -0.321250        -0.229096
 H        -0.950079        -0.030007         2.926353
 H        -1.167201         1.567716         2.838173
 H        -3.255283        -0.531371         2.468078
 H        -4.387723         0.530207         0.326322
 H        -3.284286         2.590662        -0.771164
 H        -3.106497         2.710789         0.888045
 H        -0.780940         1.990818        -0.916546
 H        -0.711217         2.807490         0.536862
 H        -1.313758        -1.507885         0.653410
