19
Iteration:  3508charge 0 multiplicity 1
 O         0.705782         0.254158         0.738044
 C        -0.748566         0.639573         0.755603
 C        -1.227449         0.714200         2.157061
 C        -2.550364        -0.064961         1.754466
 C        -3.403708         0.682822         0.507256
 C        -2.777827         2.148614         0.346307
 C        -1.228698         1.822818        -0.020059
 O        -2.874560        -0.211315        -0.508037
 C        -1.796080        -0.564810         0.398823
 H         1.549280         0.877936         0.607461
 H        -0.606516         0.137051         2.890905
 H        -1.280286         1.737555         2.557789
 H        -3.025037        -0.776272         2.409855
 H        -4.515820         0.678764         0.619428
 H        -3.043838         2.654211        -0.626549
 H        -2.774197         2.769814         1.260786
 H        -1.114828         1.717403        -1.138327
 H        -0.817861         2.808826         0.161056
 H        -1.259708        -1.520187         0.222791
