19
Iteration:  3795charge 0 multiplicity 1
 O         0.624584         0.374038         0.670164
 C        -0.778685         0.602371         0.773135
 C        -1.384600         0.723581         2.215726
 C        -2.603574        -0.088935         1.672470
 C        -3.303670         0.716393         0.508136
 C        -2.616578         2.197829         0.365145
 C        -1.243875         1.796075        -0.030330
 O        -2.773996        -0.229379        -0.427766
 C        -1.731428        -0.656677         0.455684
 H         0.809838         0.631980        -0.361630
 H        -0.656207         0.066710         2.756097
 H        -1.527131         1.755315         2.626036
 H        -3.391395        -0.627641         2.150519
 H        -4.388688         0.910060         0.490665
 H        -3.039172         2.655969        -0.523516
 H        -2.740540         2.608743         1.359877
 H        -1.223715         1.632204        -1.112802
 H        -0.503578         2.587976         0.123044
 H        -1.373098        -1.708283         0.539217
