19
Iteration:  3313charge 0 multiplicity 1
 O         0.566339         0.186844         0.459041
 C        -0.764006         0.683138         0.829348
 C        -1.366163         0.708878         2.311660
 C        -2.592035        -0.059727         1.717706
 C        -3.245492         0.681058         0.558776
 C        -2.732053         2.122107         0.254380
 C        -1.143194         1.938128         0.079690
 O        -2.744609        -0.269448        -0.477846
 C        -1.786053        -0.529673         0.446868
 H         1.055745         1.011088         0.535840
 H        -0.845524         0.029532         3.057129
 H        -1.675269         1.656383         2.802611
 H        -3.232763        -0.709483         2.222418
 H        -4.361008         0.551029         0.512081
 H        -3.129696         2.590104        -0.644312
 H        -3.112266         2.801141         1.077444
 H        -0.671879         1.828962        -0.956826
 H        -0.632302         2.878081         0.477001
 H        -1.368813        -1.534393         0.268742
