19
Iteration:   329charge 0 multiplicity 1
 O         0.689253         0.334525         0.736318
 C        -0.746881         0.597918         0.709263
 C        -1.290021         0.845014         2.149730
 C        -2.534464        -0.030418         1.708149
 C        -3.327673         0.678130         0.553490
 C        -2.689674         2.112258         0.391673
 C        -1.227854         1.782330        -0.109847
 O        -2.860045        -0.265375        -0.522873
 C        -1.833709        -0.619862         0.393736
 H         0.828045         0.564357         1.757651
 H        -0.614676         0.302348         2.855638
 H        -1.534139         1.884341         2.445072
 H        -3.136638        -0.597179         2.440933
 H        -4.370561         0.674535         0.601654
 H        -3.250199         2.667220        -0.297349
 H        -2.693952         2.643580         1.408355
 H        -1.121632         1.606037        -1.200739
 H        -0.530736         2.734501         0.171982
 H        -1.414420        -1.658650         0.275393
