19
Iteration:  4024
 O         0.643411         0.203516         0.563849
 C        -0.752668         0.706493         0.795468
 C        -1.319921         0.692279         2.286078
 C        -2.591412        -0.073841         1.686074
 C        -3.293433         0.715075         0.493018
 C        -2.722013         2.076356         0.326775
 C        -1.248062         1.882278         0.007477
 O        -2.739391        -0.166311        -0.524510
 C        -1.780393        -0.521134         0.589113
 H         0.816095         0.200493        -0.333003
 H        -1.010322         0.001910         3.091509
 H        -1.446665         1.722601         2.595428
 H        -3.141030        -0.697751         2.387516
 H        -4.339760         0.584694         0.557127
 H        -3.155293         2.540794        -0.621469
 H        -3.142932         2.708779         1.085650
 H        -0.959884         1.674025        -1.043943
 H        -0.616347         2.818278         0.274938
 H        -1.343650        -1.561897         0.607332
