19
Iteration:  1667
 O         0.613278         0.293637         0.677977
 C        -0.784457         0.668233         0.721740
 C        -1.387812         0.710591         2.166903
 C        -2.594933        -0.163693         1.718712
 C        -3.284772         0.681547         0.605696
 C        -2.584526         2.166687         0.393900
 C        -1.187998         1.886138        -0.134768
 O        -2.852759        -0.231196        -0.514112
 C        -1.741626        -0.559988         0.445712
 H         1.067455         0.935933         1.114163
 H        -0.792962         0.167714         2.953862
 H        -1.550974         1.696225         2.611050
 H        -3.272631        -0.779889         2.372433
 H        -4.410542         0.689023         0.694746
 H        -3.058779         2.651248        -0.470335
 H        -2.546735         2.645315         1.355978
 H        -1.445886         1.443970        -1.117352
 H        -0.580656         2.730824         0.070600
 H        -1.159630        -1.540486         0.210267
