19
Iteration:  1722charge 0 multiplicity 1
 O         0.585130         0.287230         0.441416
 C        -0.745414         0.635953         0.822124
 C        -1.276476         0.600996         2.317963
 C        -2.573964        -0.045224         1.724156
 C        -3.327597         0.753108         0.546251
 C        -2.761194         2.054089         0.125625
 C        -1.145871         1.965854         0.174262
 O        -2.763380        -0.246435        -0.448860
 C        -1.810643        -0.532142         0.482866
 H         1.347235         0.732954         0.849690
 H        -0.771554        -0.174908         2.914640
 H        -1.378794         1.431021         2.843771
 H        -3.349225        -0.741475         2.170844
 H        -4.447811         0.711133         0.523848
 H        -3.056296         2.323989        -0.953987
 H        -3.210235         2.901162         0.679561
 H        -0.727354         2.072645        -0.900123
 H        -0.670981         2.868799         0.663280
 H        -1.564164        -1.655671         0.441997
