19
Iteration:  3335
 O         0.616551         0.320639         0.559568
 C        -0.750239         0.599579         0.746271
 C        -1.297299         0.632545         2.209339
 C        -2.607325         0.004079         1.675176
 C        -3.350279         0.713934         0.495750
 C        -2.725306         2.081836         0.304869
 C        -1.171033         1.837754         0.082685
 O        -2.825300        -0.214817        -0.496842
 C        -1.731788        -0.597636         0.572213
 H         1.012455         1.186001         0.905893
 H        -0.817163        -0.170540         2.870550
 H        -1.266740         1.691950         2.486799
 H        -3.113111        -0.637077         2.318264
 H        -4.487503         0.788243         0.403353
 H        -3.038590         2.737640        -0.503024
 H        -2.895796         2.855960         1.106713
 H        -0.816203         1.730749        -1.030884
 H        -0.613090         2.811774         0.432420
 H        -1.403336        -1.644191         0.403984
