19
Iteration:  4101
 O         0.654127         0.371517         0.680952
 C        -0.716701         0.607154         0.813767
 C        -1.270246         0.572059         2.260798
 C        -2.558060        -0.016131         1.674309
 C        -3.333621         0.755290         0.602688
 C        -2.701133         2.064077         0.228014
 C        -1.218183         1.809496        -0.008335
 O        -2.873804        -0.175545        -0.485239
 C        -1.776155        -0.494648         0.456595
 H         0.999929         1.090656         0.054204
 H        -0.734970        -0.268905         2.724422
 H        -1.467023         1.412265         2.891949
 H        -3.175292        -0.729394         2.256752
 H        -4.383700         0.763532         0.461900
 H        -3.185536         2.306983        -0.786220
 H        -2.898087         2.772438         1.033134
 H        -1.099732         1.224366        -0.949336
 H        -0.423953         2.649201        -0.046903
 H        -1.602325        -1.602004         0.339896
