19
Iteration:  3826
 O         0.649285         0.300746         0.696670
 C        -0.726579         0.637963         0.800516
 C        -1.282558         0.629394         2.307823
 C        -2.535295        -0.005191         1.710716
 C        -3.352648         0.688571         0.582159
 C        -2.695503         2.004800         0.191011
 C        -1.201553         1.852393        -0.062087
 O        -2.879640        -0.148290        -0.477540
 C        -1.782132        -0.558445         0.395134
 H         1.026227         1.053847         0.385271
 H        -0.534913         0.002495         2.929226
 H        -1.258885         1.560872         2.930514
 H        -3.267637        -0.637525         2.104431
 H        -4.360136         0.910526         0.728250
 H        -3.146832         2.477810        -0.759305
 H        -2.929832         2.776112         0.992794
 H        -1.042881         1.566774        -1.124431
 H        -0.805963         2.795432         0.321804
 H        -1.454486        -1.626710         0.321693
