19
Iteration:  1807
 O         0.582149         0.437404         0.738903
 C        -0.755020         0.635784         0.811952
 C        -1.331442         0.551430         2.195826
 C        -2.567891        -0.116810         1.707004
 C        -3.261862         0.776447         0.553341
 C        -2.631902         2.133469         0.359740
 C        -1.253182         1.800229        -0.127936
 O        -2.798689        -0.127250        -0.579061
 C        -1.789981        -0.652124         0.501320
 H         0.902004         1.006306        -0.027311
 H        -0.648710        -0.128476         2.871993
 H        -1.449500         1.560106         2.850043
 H        -3.211743        -0.742050         2.344444
 H        -4.357281         0.863039         0.516969
 H        -3.126439         2.770118        -0.471270
 H        -2.552548         2.567610         1.348917
 H        -1.361322         1.110811        -0.993036
 H        -0.482711         2.569683        -0.108358
 H        -1.527491        -1.758141         0.533631
