19
Iteration:  2960charge 0 multiplicity 1
 O         0.657874         0.176217         0.670562
 C        -0.726291         0.647757         0.759387
 C        -1.375921         0.806404         2.207024
 C        -2.545897        -0.074752         1.725735
 C        -3.350588         0.653537         0.628283
 C        -2.750276         2.101762         0.355586
 C        -1.160761         1.834507        -0.056676
 O        -2.828876        -0.186870        -0.545550
 C        -1.767921        -0.532546         0.421157
 H         1.209316         1.013691         0.471189
 H        -0.589208         0.360924         2.939691
 H        -1.593814         1.831638         2.716392
 H        -3.063661        -0.902948         2.336439
 H        -4.519505         0.507478         0.710066
 H        -3.244950         2.464484        -0.622438
 H        -2.834140         2.830321         1.135325
 H        -1.107267         1.892381        -1.142484
 H        -0.601355         2.711933         0.193038
 H        -1.164746        -1.471689         0.213985
