19
Iteration:   749
 O         0.618476         0.325231         0.765901
 C        -0.729727         0.695175         0.809347
 C        -1.283237         0.657070         2.239994
 C        -2.505108        -0.044540         1.707899
 C        -3.301996         0.708178         0.602025
 C        -2.703533         2.042833         0.141800
 C        -1.218659         1.947602        -0.079256
 O        -2.869221        -0.244889        -0.447129
 C        -1.791852        -0.543947         0.448406
 H         0.684913        -0.149871        -0.176122
 H        -0.656925        -0.007527         2.811024
 H        -1.497220         1.548106         2.811502
 H        -3.054624        -0.831396         2.406347
 H        -4.391452         0.743024         0.652465
 H        -3.337453         2.318857        -0.856766
 H        -2.717302         2.848715         0.892571
 H        -0.904520         1.689147        -1.133028
 H        -0.655481         2.846375         0.151512
 H        -1.423938        -1.517871         0.345159
