19
Iteration:    96
 O         0.534901         0.237986         0.387534
 C        -0.771795         0.616195         0.822698
 C        -1.332216         0.697693         2.257994
 C        -2.623902         0.026226         1.798464
 C        -3.272347         0.707303         0.564034
 C        -2.697831         1.963884         0.072268
 C        -1.200851         1.980957         0.187379
 O        -2.728764        -0.254311        -0.469468
 C        -1.782457        -0.467350         0.513077
 H         1.224145         0.381582         1.186797
 H        -0.746673        -0.053143         2.945524
 H        -1.245708         1.765745         2.649034
 H        -3.210913        -0.623951         2.464358
 H        -4.327949         0.582092         0.589063
 H        -3.078042         2.081736        -0.954511
 H        -3.167983         2.851478         0.740055
 H        -0.617431         2.035405        -0.696286
 H        -0.755789         2.733922         0.868960
 H        -1.175495        -1.478057         0.352838
