19
Iteration:  3316
 O         0.574175         0.204818         0.461646
 C        -0.760525         0.667096         0.830375
 C        -1.357902         0.714828         2.294068
 C        -2.591791        -0.063635         1.716889
 C        -3.263981         0.705914         0.543801
 C        -2.698342         2.117155         0.253742
 C        -1.167322         1.925886         0.072274
 O        -2.746331        -0.267148        -0.468836
 C        -1.792871        -0.531563         0.440393
 H         1.073329         1.001402         0.566676
 H        -0.821227         0.091480         3.072136
 H        -1.669369         1.626822         2.934708
 H        -3.298005        -0.744438         2.234955
 H        -4.355306         0.573290         0.511779
 H        -3.132984         2.548741        -0.655367
 H        -3.128134         2.682088         1.137756
 H        -0.706214         1.915135        -0.897399
 H        -0.640927         2.760674         0.480920
 H        -1.347432        -1.576535         0.340291
