19
Iteration:  3019
 O         0.650820         0.327155         0.499173
 C        -0.681079         0.533517         0.832912
 C        -1.235024         0.545913         2.241215
 C        -2.585105         0.121398         1.717347
 C        -3.370390         0.720849         0.489592
 C        -2.783480         2.085198         0.134232
 C        -1.250808         1.867832         0.101994
 O        -2.747252        -0.203108        -0.453988
 C        -1.816343        -0.570395         0.601803
 H         1.174166         0.944839         0.934156
 H        -0.825990        -0.353900         2.826741
 H        -1.124979         1.564282         2.671024
 H        -3.251297        -0.489667         2.212478
 H        -4.440332         0.701945         0.410127
 H        -3.144919         2.485078        -0.783929
 H        -3.155220         2.818837         0.907773
 H        -1.081641         1.728958        -0.994069
 H        -0.868853         2.854445         0.608223
 H        -1.442794        -1.577569         0.489216
