19
Iteration:  4445
 O         0.670692         0.442847         0.614758
 C        -0.716094         0.578375         0.878433
 C        -1.266696         0.615778         2.246175
 C        -2.608091        -0.082469         1.637046
 C        -3.293017         0.770793         0.501686
 C        -2.732784         2.098740         0.219338
 C        -1.100506         1.856662         0.083712
 O        -2.909062        -0.268604        -0.451717
 C        -1.850752        -0.571720         0.502447
 H         0.663346         0.582419        -0.285553
 H        -0.739676         0.041557         2.979182
 H        -1.389909         1.554474         2.712276
 H        -3.233629        -0.760540         2.182034
 H        -4.380223         0.675532         0.561892
 H        -2.965574         2.419477        -0.788721
 H        -3.020326         2.942474         0.865467
 H        -0.831059         1.705359        -0.960398
 H        -0.441114         2.677739         0.453769
 H        -1.409152        -1.503368         0.289890
