19
Iteration:   516
 O         0.625940         0.402030         0.752616
 C        -0.730740         0.740768         0.799658
 C        -1.351092         0.643224         2.249001
 C        -2.545207        -0.125866         1.730270
 C        -3.260352         0.751504         0.515462
 C        -2.588531         2.102532         0.222009
 C        -1.123222         1.906926        -0.139364
 O        -2.953253        -0.343115        -0.416505
 C        -1.879997        -0.603590         0.471536
 H         1.113069         0.759292        -0.118491
 H        -0.826881        -0.115788         2.809703
 H        -1.610668         1.573037         2.745363
 H        -3.151303        -0.833623         2.397694
 H        -4.299070         0.950574         0.501873
 H        -3.038286         2.422370        -0.713162
 H        -2.739811         2.782889         1.039319
 H        -1.044945         1.547767        -1.200760
 H        -0.515056         2.808238         0.118298
 H        -1.280711        -1.508523         0.307491
