19
Iteration:  2294charge 0 multiplicity 1
 O         0.614435         0.275493         0.662743
 C        -0.728028         0.694624         0.728059
 C        -1.202207         0.672110         2.243219
 C        -2.524784        -0.036445         1.714787
 C        -3.438496         0.692874         0.574530
 C        -2.731977         2.051525         0.198020
 C        -1.180456         2.006161         0.104114
 O        -2.887024        -0.330144        -0.432060
 C        -1.724992        -0.510169         0.441057
 H         0.874556         0.170384        -0.186608
 H        -0.553380        -0.088373         2.745074
 H        -1.296204         1.667409         2.715588
 H        -3.102675        -0.837932         2.346860
 H        -4.534043         0.658331         0.586730
 H        -2.966375         2.294572        -0.934311
 H        -3.152670         2.989959         0.754163
 H        -1.044358         2.024642        -0.952577
 H        -0.622540         2.913360         0.486694
 H        -1.247377        -1.452609         0.149680
