19
Iteration:  1213
 O         0.667548         0.297114         0.803763
 C        -0.751833         0.637012         0.734452
 C        -1.295727         0.737679         2.160905
 C        -2.496455        -0.044555         1.661898
 C        -3.307645         0.722035         0.574945
 C        -2.717848         2.055864         0.370964
 C        -1.218493         1.810066        -0.131757
 O        -2.866075        -0.243796        -0.488655
 C        -1.835973        -0.571318         0.397935
 H         1.160883         1.190698         0.640012
 H        -0.599271         0.145201         2.742909
 H        -1.366424         1.707662         2.607502
 H        -3.332943        -0.501863         2.327675
 H        -4.390245         0.654400         0.775900
 H        -3.266391         2.723990        -0.386675
 H        -2.851665         2.716406         1.262478
 H        -1.209455         1.620521        -1.180827
 H        -0.494735         2.635626         0.111327
 H        -1.361820        -1.598793         0.264544
