19
Iteration:  2377charge 0 multiplicity 1
 O         0.709485         0.414305         0.721202
 C        -0.753025         0.627863         0.746775
 C        -1.277108         0.651796         2.227637
 C        -2.552592        -0.100096         1.790746
 C        -3.350682         0.711473         0.462947
 C        -2.713194         2.138953         0.361046
 C        -1.232244         1.825771        -0.141282
 O        -2.827519        -0.211902        -0.492970
 C        -1.824503        -0.588465         0.511848
 H         0.832469         0.449648        -0.258981
 H        -0.635153         0.039672         2.861274
 H        -1.271568         1.609127         2.789323
 H        -3.120321        -0.776157         2.384684
 H        -4.461029         0.568397         0.539748
 H        -3.349568         2.740045        -0.293226
 H        -2.632011         2.664370         1.258816
 H        -1.520317         1.418902        -1.164184
 H        -0.534412         2.708136        -0.088128
 H        -1.352046        -1.547572         0.246013
