19
Iteration:  1970charge 0 multiplicity 1
 O         0.594573         0.323962         0.811998
 C        -0.741874         0.621880         0.720963
 C        -1.319031         0.705893         2.248193
 C        -2.451848        -0.097285         1.687239
 C        -3.351311         0.711098         0.607336
 C        -2.695948         2.081749         0.261515
 C        -1.211440         1.856125        -0.135934
 O        -2.877659        -0.196814        -0.414901
 C        -1.698770        -0.467330         0.381507
 H         0.978765         0.003286         0.006371
 H        -0.732788         0.038195         2.980018
 H        -1.479973         1.673100         2.777975
 H        -3.032644        -0.979457         2.028972
 H        -4.455112         0.655552         0.718551
 H        -3.264424         2.493736        -0.689921
 H        -2.859560         2.698286         1.173535
 H        -1.306058         1.539603        -1.232259
 H        -0.655479         2.750742        -0.025349
 H        -1.394697        -1.529782         0.107908
