19
Iteration:  3203
 O         0.598075         0.213201         0.634473
 C        -0.776013         0.606275         0.784597
 C        -1.294214         0.655459         2.170821
 C        -2.551363        -0.098339         1.668720
 C        -3.304521         0.740106         0.633825
 C        -2.827122         2.144384         0.255548
 C        -1.189440         1.857939        -0.012382
 O        -2.762958        -0.173366        -0.485640
 C        -1.714909        -0.497979         0.445113
 H         1.184057         0.864906         1.210529
 H        -0.810362         0.130957         3.006919
 H        -1.461861         1.641439         2.569100
 H        -3.120367        -0.713089         2.277042
 H        -4.427430         0.771741         0.636883
 H        -3.238544         2.672698        -0.602025
 H        -3.104394         2.610796         1.217365
 H        -1.134423         1.569578        -1.078320
 H        -0.512051         2.669630         0.162395
 H        -1.220278        -1.438389         0.296337
