19
Iteration:  3772
 O         0.676446         0.358871         0.660233
 C        -0.730259         0.591812         0.833613
 C        -1.297803         0.680674         2.202696
 C        -2.555275         0.060983         1.765569
 C        -3.379602         0.688461         0.471215
 C        -2.770477         2.100647         0.371078
 C        -1.191038         1.822571        -0.025785
 O        -2.759776        -0.239553        -0.569691
 C        -1.830731        -0.542062         0.482549
 H         0.655192        -0.106853        -0.106928
 H        -0.730635        -0.077557         2.864320
 H        -1.352456         1.707322         2.624087
 H        -3.126030        -0.610853         2.301064
 H        -4.431654         0.776281         0.485000
 H        -3.329129         2.565657        -0.461841
 H        -2.726230         2.503556         1.373857
 H        -0.895553         1.626049        -1.084420
 H        -0.698041         2.747434         0.274713
 H        -1.342600        -1.555697         0.508324
