19
Iteration:  3538charge 0 multiplicity 1
 O         0.608090         0.271422         0.593025
 C        -0.776267         0.649403         0.771177
 C        -1.353628         0.700682         2.244054
 C        -2.573534        -0.016707         1.722933
 C        -3.355988         0.680116         0.561925
 C        -2.676912         2.110722         0.351348
 C        -1.208092         1.856909        -0.058214
 O        -2.725313        -0.231547        -0.495277
 C        -1.799177        -0.587688         0.451617
 H         1.256645         0.902598         0.421923
 H        -0.826947         0.012418         2.915531
 H        -1.520515         1.729399         2.729759
 H        -3.147598        -0.677941         2.469223
 H        -4.447722         0.629265         0.595363
 H        -3.018804         2.723964        -0.537000
 H        -2.599371         2.728237         1.255511
 H        -1.212308         1.667883        -1.150236
 H        -0.755123         2.782512         0.301186
 H        -1.305459        -1.547016         0.330952
