19
Iteration:  3665
 O         0.579512         0.313211         0.622542
 C        -0.762254         0.582525         0.742954
 C        -1.268781         0.707729         2.223999
 C        -2.604513        -0.025368         1.714810
 C        -3.309027         0.660068         0.536180
 C        -2.695682         2.105531         0.321827
 C        -1.246370         1.782601        -0.032080
 O        -2.728567        -0.174568        -0.487825
 C        -1.781097        -0.544733         0.499294
 H         1.059044         1.070645         0.664294
 H        -0.725111         0.032978         2.879017
 H        -1.404113         1.650741         2.744845
 H        -3.416281        -0.557983         2.242435
 H        -4.464982         0.540428         0.565093
 H        -3.281100         2.747940        -0.306704
 H        -2.644927         2.816426         1.208089
 H        -1.233878         1.411048        -1.100400
 H        -0.578098         2.708418        -0.027287
 H        -1.286608        -1.546594         0.327094
