19
Iteration:   218charge 0 multiplicity 1
 O         0.611606         0.334336         0.755821
 C        -0.743814         0.653292         0.729265
 C        -1.295246         0.751372         2.242206
 C        -2.563070        -0.070162         1.759014
 C        -3.351077         0.706017         0.548736
 C        -2.732432         2.045371         0.265346
 C        -1.168532         1.825103        -0.116407
 O        -2.801970        -0.208801        -0.483540
 C        -1.775440        -0.541611         0.452070
 H         0.749556        -0.043903        -0.076911
 H        -0.762320        -0.049018         2.831764
 H        -1.421075         1.767439         2.685748
 H        -3.099845        -0.691294         2.446994
 H        -4.387526         0.706055         0.667570
 H        -3.211215         2.520365        -0.530298
 H        -2.847663         2.713917         1.247244
 H        -0.944627         1.742363        -1.148368
 H        -0.642299         2.748610         0.164720
 H        -1.207466        -1.536270         0.234843
