19
Iteration:  2856charge 0 multiplicity 1
 O         0.588696         0.121032         0.653870
 C        -0.729884         0.651883         0.752672
 C        -1.263990         0.713690         2.224543
 C        -2.519023        -0.058858         1.716108
 C        -3.352893         0.672526         0.564325
 C        -2.816317         2.092671         0.219048
 C        -1.250047         2.006557         0.023393
 O        -2.792430        -0.208259        -0.491829
 C        -1.699992        -0.528827         0.447921
 H         1.166550         0.947279         0.610568
 H        -0.590432        -0.095548         2.655807
 H        -1.146823         1.730320         2.798722
 H        -3.213263        -0.641150         2.498889
 H        -4.440180         0.705191         0.610250
 H        -3.375426         2.401763        -0.639612
 H        -3.043097         2.901761         1.009350
 H        -1.040461         2.031297        -1.064204
 H        -0.591882         2.674870         0.604093
 H        -1.257025        -1.548277         0.381638
