19
Iteration:  3620charge 0 multiplicity 1
 O         0.657888         0.213656         0.592875
 C        -0.806518         0.672606         0.810573
 C        -1.311041         0.726213         2.220512
 C        -2.538600        -0.040494         1.692973
 C        -3.306363         0.716110         0.587636
 C        -2.768415         2.079619         0.224950
 C        -1.172146         1.890582         0.027613
 O        -2.871798        -0.286201        -0.476903
 C        -1.740116        -0.544995         0.421384
 H         1.137375         0.840119         1.031363
 H        -0.653954         0.059526         2.843096
 H        -1.325367         1.717592         2.653516
 H        -3.086703        -0.622978         2.402633
 H        -4.428306         0.795278         0.800851
 H        -3.148943         2.602264        -0.674286
 H        -3.051467         2.849581         0.998365
 H        -0.924752         1.984016        -1.044451
 H        -0.589057         2.755517         0.476235
 H        -1.167643        -1.510654         0.261032
