19
Iteration:   358charge 0 multiplicity 1
 O         0.640603         0.433987         0.575339
 C        -0.759796         0.665290         0.803874
 C        -1.373038         0.626670         2.291140
 C        -2.609992        -0.060862         1.686896
 C        -3.251837         0.772449         0.512124
 C        -2.668017         2.109777         0.286434
 C        -1.221438         1.748421        -0.158362
 O        -2.797907        -0.235866        -0.419761
 C        -1.792028        -0.560679         0.507506
 H         0.990430         0.225175         1.490906
 H        -0.685023        -0.141143         2.783768
 H        -1.564406         1.569488         2.901969
 H        -3.288920        -0.680613         2.210258
 H        -4.373231         0.840509         0.439050
 H        -3.315696         2.628168        -0.452511
 H        -2.635715         2.674284         1.244060
 H        -1.096519         1.370944        -1.147082
 H        -0.514524         2.678836        -0.119553
 H        -1.261107        -1.625506         0.436468
