19
Iteration:   991charge 0 multiplicity 1
 O         0.620336         0.196694         0.506864
 C        -0.730740         0.662665         0.819457
 C        -1.226591         0.647429         2.302741
 C        -2.559367         0.015474         1.742198
 C        -3.289412         0.698921         0.574855
 C        -2.764233         2.025773         0.003123
 C        -1.232361         2.022563         0.202750
 O        -2.865906        -0.243316        -0.468133
 C        -1.747367        -0.560764         0.507813
 H         1.166792         1.020331         0.120210
 H        -0.657187        -0.044791         3.000376
 H        -1.462334         1.604694         2.897713
 H        -3.249409        -0.711679         2.458862
 H        -4.397493         0.591336         0.545697
 H        -3.147352         2.074896        -1.035603
 H        -3.159622         2.804515         0.520630
 H        -0.587853         2.208447        -0.751476
 H        -0.941991         2.937463         0.768982
 H        -1.409535        -1.574386         0.455506
