19
Iteration:  4595charge 0 multiplicity 1
 O         0.586310         0.325005         0.729616
 C        -0.757589         0.598699         0.714642
 C        -1.312870         0.662576         2.176386
 C        -2.559334        -0.024037         1.677940
 C        -3.306307         0.665290         0.546314
 C        -2.685272         2.042639         0.240672
 C        -1.172716         1.965744         0.089032
 O        -2.817210        -0.221898        -0.508708
 C        -1.795036        -0.561281         0.474623
 H         0.705676         0.297824        -0.269681
 H        -0.824683        -0.124388         2.730027
 H        -1.366932         1.675341         2.633916
 H        -3.103142        -0.491016         2.483234
 H        -4.365252         0.751344         0.720104
 H        -3.061440         2.666169        -0.580697
 H        -2.890021         2.655308         1.075432
 H        -0.795183         2.013267        -0.955045
 H        -0.597448         2.617527         0.705402
 H        -1.315056        -1.591752         0.326807
