19
Iteration:    74charge 0 multiplicity 1
 O         0.676296         0.355291         0.581695
 C        -0.728911         0.616264         0.767720
 C        -1.260536         0.668933         2.246510
 C        -2.496894        -0.001481         1.669842
 C        -3.361836         0.749023         0.504896
 C        -2.773093         2.146356         0.151336
 C        -1.210914         1.931708         0.060549
 O        -2.886066        -0.297066        -0.416137
 C        -1.771270        -0.643580         0.495679
 H         0.913137         0.040017         1.391742
 H        -0.695006        -0.102313         2.918826
 H        -1.499375         1.693457         2.696570
 H        -3.101728        -0.682544         2.295952
 H        -4.421767         0.582757         0.592064
 H        -2.994308         2.529895        -0.847018
 H        -3.067607         3.024737         0.892993
 H        -0.827787         1.808716        -0.944204
 H        -0.529775         2.696455         0.472567
 H        -1.553915        -1.810371         0.553599
