19
Iteration:  2052
 O         0.627576         0.388379         0.603703
 C        -0.739182         0.636215         0.778974
 C        -1.270349         0.542718         2.306886
 C        -2.559194        -0.032535         1.757892
 C        -3.305469         0.721938         0.526853
 C        -2.741410         2.066138         0.135944
 C        -1.178976         1.879176        -0.020528
 O        -2.866594        -0.239251        -0.459120
 C        -1.755401        -0.551535         0.560681
 H         0.882375         0.726681        -0.192072
 H        -0.619475        -0.129703         2.888644
 H        -1.362003         1.636432         2.781342
 H        -3.334061        -0.546144         2.317072
 H        -4.389579         0.685925         0.614312
 H        -3.242820         2.526322        -0.723271
 H        -2.944676         2.852883         0.905139
 H        -0.854168         1.760294        -1.007858
 H        -0.694622         2.816081         0.388916
 H        -1.392029        -1.546793         0.594369
