19
Iteration:  3978
 O         0.691913         0.434370         0.714121
 C        -0.705405         0.593083         0.745047
 C        -1.283349         0.650805         2.234659
 C        -2.628299        -0.023313         1.707273
 C        -3.356061         0.771613         0.547336
 C        -2.635277         2.053299         0.254633
 C        -1.166147         1.882840         0.045794
 O        -2.906583        -0.246032        -0.490941
 C        -1.808390        -0.619628         0.446301
 H         0.856595        -0.007371        -0.068202
 H        -0.563111        -0.086320         2.632817
 H        -1.332180         1.589920         2.709469
 H        -3.190845        -0.761705         2.225785
 H        -4.425463         0.725327         0.652376
 H        -3.223496         2.408277        -0.626807
 H        -2.946446         2.745653         1.027785
 H        -1.043289         1.878092        -1.081943
 H        -0.562880         2.808866         0.237697
 H        -1.513832        -1.696265         0.392440
