19
Iteration:  3687
 O         0.732248         0.319599         0.647110
 C        -0.716055         0.589782         0.779034
 C        -1.307513         0.672117         2.221622
 C        -2.543942         0.014380         1.674589
 C        -3.370386         0.781268         0.494800
 C        -2.719895         2.140777         0.274417
 C        -1.260594         1.865611         0.009220
 O        -2.833107        -0.286581        -0.495337
 C        -1.827364        -0.641952         0.539961
 H         1.299294         1.055896         0.097082
 H        -0.766343        -0.094167         2.769576
 H        -1.232181         1.576371         2.828175
 H        -3.191037        -0.672769         2.266133
 H        -4.514751         0.637160         0.601545
 H        -3.255954         2.727282        -0.453737
 H        -3.110991         2.755665         1.168512
 H        -1.046947         1.630834        -1.073097
 H        -0.704176         2.711272         0.490944
 H        -1.288225        -1.607521         0.389607
