19
Iteration:  4399
 O         0.578099         0.232662         0.662666
 C        -0.784409         0.604935         0.739611
 C        -1.269497         0.692613         2.238075
 C        -2.549546        -0.087352         1.740696
 C        -3.349328         0.724579         0.546595
 C        -2.726536         2.145558         0.263366
 C        -1.252212         1.948610         0.008701
 O        -2.749210        -0.225220        -0.476368
 C        -1.725863        -0.602451         0.434193
 H         1.135145         0.873063         0.353635
 H        -0.764480         0.095811         2.997163
 H        -1.366310         1.680908         2.723171
 H        -3.183364        -0.717123         2.374711
 H        -4.429125         0.688960         0.426797
 H        -3.161265         2.751831        -0.580182
 H        -2.918889         2.929670         1.002983
 H        -1.236364         1.660729        -1.028665
 H        -0.484325         2.739417         0.118164
 H        -1.340087        -1.631007         0.415899
