19
Iteration:  3179
 O         0.646704         0.131828         0.606693
 C        -0.734928         0.643731         0.765963
 C        -1.285066         0.784945         2.240542
 C        -2.526237        -0.026623         1.669849
 C        -3.324785         0.672201         0.562889
 C        -2.752063         2.038288         0.256973
 C        -1.257722         1.968026         0.081754
 O        -2.801095        -0.186890        -0.517915
 C        -1.801863        -0.557761         0.453541
 H         1.321639         0.789560         0.702972
 H        -0.804191         0.099467         2.916044
 H        -1.346152         1.675798         2.822352
 H        -3.120440        -0.699506         2.349152
 H        -4.415390         0.707904         0.327130
 H        -3.029144         2.510680        -0.725574
 H        -3.221980         2.520649         1.095600
 H        -0.965829         2.106521        -0.986300
 H        -0.737806         2.769504         0.703086
 H        -1.394029        -1.563856         0.428941
