19
Iteration:   490charge 0 multiplicity 1
 O         0.703461         0.495207         0.827039
 C        -0.715851         0.544289         0.789645
 C        -1.308263         0.672124         2.164711
 C        -2.579630         0.014894         1.650434
 C        -3.349780         0.760800         0.529238
 C        -2.671831         2.091074         0.321824
 C        -1.210831         1.647439        -0.195668
 O        -2.889889        -0.234026        -0.456949
 C        -1.817179        -0.578552         0.474380
 H         1.077512         1.145043         0.079020
 H        -0.884276        -0.201871         2.802505
 H        -1.351018         1.722058         2.589705
 H        -3.170637        -0.571721         2.279580
 H        -4.467061         0.780995         0.673616
 H        -3.114945         2.782958        -0.392862
 H        -2.559060         2.560308         1.409868
 H        -1.235443         1.305692        -1.169626
 H        -0.518870         2.440504         0.094349
 H        -1.330091        -1.649343         0.340336
