19
Iteration:  1168
 O         0.517197         0.235658         0.441743
 C        -0.768268         0.604690         0.803306
 C        -1.327048         0.696425         2.303141
 C        -2.614283         0.041105         1.783460
 C        -3.272641         0.696530         0.555986
 C        -2.740745         2.063001         0.135992
 C        -1.175598         1.925344         0.109789
 O        -2.736964        -0.226743        -0.507613
 C        -1.690634        -0.602218         0.570388
 H         1.089103         1.068379         0.318150
 H        -0.796637         0.085876         3.055510
 H        -1.429945         1.648601         2.784559
 H        -3.239518        -0.684199         2.488946
 H        -4.352724         0.630527         0.478058
 H        -3.295332         2.342847        -0.824341
 H        -3.092735         2.931202         0.831442
 H        -0.776825         1.846149        -0.920758
 H        -0.674412         2.787513         0.616574
 H        -1.220079        -1.588757         0.512802
