19
Iteration:  1898
 O         0.615793         0.296310         0.502323
 C        -0.814647         0.661568         0.802206
 C        -1.322133         0.634148         2.360388
 C        -2.621897        -0.052878         1.701279
 C        -3.315395         0.681718         0.547463
 C        -2.681635         2.114212         0.216465
 C        -1.166595         1.961082         0.096236
 O        -2.725990        -0.251673        -0.486544
 C        -1.787084        -0.538252         0.501264
 H         0.815600         0.494216        -0.400985
 H        -0.788860        -0.074956         2.994588
 H        -1.431450         1.610051         2.827748
 H        -3.230718        -0.752946         2.269160
 H        -4.410737         0.658331         0.498971
 H        -3.067124         2.289207        -0.758077
 H        -2.979057         2.808866         0.987322
 H        -1.089755         1.760043        -0.953068
 H        -0.522651         2.813258         0.490367
 H        -1.391619        -1.542554         0.526900
