19
Iteration:  1483charge 0 multiplicity 1
 O         0.608416         0.473985         0.549492
 C        -0.782213         0.583697         0.783738
 C        -1.348926         0.614519         2.211743
 C        -2.602315        -0.029051         1.684690
 C        -3.259602         0.787622         0.564031
 C        -2.634899         2.124315         0.263344
 C        -1.153564         1.833301         0.052551
 O        -2.855225        -0.287802        -0.500641
 C        -1.788666        -0.579287         0.497495
 H         1.139555         0.068639         1.376305
 H        -0.845815        -0.197062         2.766179
 H        -1.292987         1.503899         2.773234
 H        -3.436031        -0.591813         2.204460
 H        -4.361008         0.788798         0.711603
 H        -3.144559         2.448600        -0.632203
 H        -2.861859         2.756076         1.147177
 H        -1.034916         1.628331        -1.046485
 H        -0.339841         2.556017         0.358256
 H        -1.409174        -1.637597         0.297874
