19
Iteration:  2452
 O         0.632083         0.356774         0.580332
 C        -0.806294         0.606959         0.717697
 C        -1.228273         0.623657         2.252534
 C        -2.576479         0.044254         1.770488
 C        -3.275334         0.677651         0.471867
 C        -2.760222         2.112100         0.154361
 C        -1.180600         1.930870         0.130069
 O        -2.866062        -0.302192        -0.420647
 C        -1.715204        -0.549049         0.512377
 H         0.852475         0.496951        -0.457362
 H        -0.885970        -0.302101         2.780002
 H        -1.077188         1.502560         2.958315
 H        -3.352488        -0.396793         2.521847
 H        -4.384890         0.476327         0.496984
 H        -3.236719         2.547726        -0.731826
 H        -3.178034         2.803919         0.952091
 H        -0.860993         1.861276        -0.909210
 H        -0.674677         2.674961         0.625098
 H        -1.322823        -1.578567         0.535523
