19
Iteration:  2107
 O         0.697323         0.237201         0.741497
 C        -0.743239         0.657532         0.709360
 C        -1.288824         0.765380         2.194111
 C        -2.520592        -0.053028         1.676157
 C        -3.424069         0.734788         0.561443
 C        -2.763286         2.067859         0.358415
 C        -1.268012         1.840164        -0.144214
 O        -2.808403        -0.278803        -0.431455
 C        -1.749901        -0.534175         0.443521
 H         1.193687         1.016170         0.600030
 H        -0.685845         0.006159         2.676165
 H        -1.279005         1.851089         2.649417
 H        -3.043808        -0.667913         2.396881
 H        -4.483964         0.726778         0.375014
 H        -3.280767         2.753674        -0.311794
 H        -2.614797         2.657041         1.270716
 H        -1.175934         1.619299        -1.158753
 H        -0.722751         2.794868         0.080383
 H        -1.410817        -1.526374         0.316228
