19
Iteration:  2175
 O         0.608015         0.230597         0.456544
 C        -0.708323         0.627010         0.815937
 C        -1.264549         0.689789         2.263389
 C        -2.571731         0.058957         1.718983
 C        -3.294766         0.774800         0.623250
 C        -2.730605         2.004537         0.147079
 C        -1.228907         1.961185         0.168441
 O        -2.807084        -0.340550        -0.469491
 C        -1.797665        -0.543868         0.455230
 H         1.186844         1.068862         0.453431
 H        -0.707534        -0.084692         2.848602
 H        -1.421278         1.717425         2.696516
 H        -3.264254        -0.637069         2.369713
 H        -4.415714         0.787259         0.713237
 H        -3.136352         2.083636        -0.794457
 H        -3.184245         2.821631         0.667134
 H        -0.786884         2.137973        -0.840144
 H        -0.973600         2.866948         0.712676
 H        -1.327279        -1.565036         0.505354
