19
Iteration:  2542
 O         0.655655         0.350685         0.801729
 C        -0.720735         0.637921         0.717251
 C        -1.255972         0.720411         2.129800
 C        -2.507210        -0.098494         1.695970
 C        -3.343291         0.704631         0.603157
 C        -2.749213         2.066183         0.274842
 C        -1.227856         1.911084        -0.057486
 O        -2.877057        -0.248220        -0.391817
 C        -1.809276        -0.596337         0.360532
 H         1.066466         0.057519        -0.099571
 H        -0.571088         0.191023         2.824272
 H        -1.248835         1.747362         2.648550
 H        -3.154947        -0.575885         2.398047
 H        -4.473437         0.790083         0.582606
 H        -3.238298         2.626599        -0.598256
 H        -2.715226         2.791472         1.123778
 H        -1.142657         1.705821        -1.139318
 H        -0.690418         2.781945         0.257334
 H        -1.304706        -1.585682         0.202045
