19
Iteration:  1149
 O         0.601048         0.324070         0.406467
 C        -0.792170         0.562558         0.816154
 C        -1.246670         0.648457         2.273442
 C        -2.579866         0.081461         1.665409
 C        -3.328327         0.754980         0.436752
 C        -2.756154         2.100591         0.141658
 C        -1.226766         1.868178         0.184310
 O        -2.705850        -0.315772        -0.391330
 C        -1.813364        -0.586909         0.597324
 H         1.118639         1.098610         0.644182
 H        -0.707218        -0.019922         2.953523
 H        -1.127523         1.585815         2.789371
 H        -3.261395        -0.350468         2.379876
 H        -4.465696         0.676026         0.482437
 H        -3.044508         2.369103        -0.895974
 H        -3.096959         2.723203         0.826128
 H        -0.792696         1.959130        -0.760825
 H        -0.813445         2.707114         0.787823
 H        -1.586915        -1.723578         0.600379
