19
Iteration:  3997charge 0 multiplicity 1
 O         0.599201         0.345617         0.673554
 C        -0.784471         0.607487         0.771250
 C        -1.258138         0.609213         2.201509
 C        -2.549173         0.001811         1.729307
 C        -3.311901         0.771953         0.514610
 C        -2.794937         2.147735         0.240251
 C        -1.222248         1.815972        -0.000913
 O        -2.735049        -0.211309        -0.466460
 C        -1.767245        -0.569000         0.462477
 H         0.817617        -0.145217        -0.050952
 H        -0.929311        -0.100534         2.950676
 H        -1.095308         1.624869         2.643750
 H        -3.087749        -0.573720         2.513368
 H        -4.432015         0.505699         0.594952
 H        -3.193309         2.762134        -0.519951
 H        -3.113850         2.735248         1.144194
 H        -0.804263         1.744585        -1.012464
 H        -0.691623         2.566697         0.524654
 H        -1.412908        -1.568910         0.313915
