19
Iteration:   117
 O         0.487133         0.184916         0.368026
 C        -0.708182         0.648431         0.854922
 C        -1.300979         0.678980         2.361826
 C        -2.575903         0.009178         1.677884
 C        -3.363906         0.710531         0.452368
 C        -2.746744         2.069445         0.105978
 C        -1.172649         2.014280         0.187191
 O        -2.698678        -0.278955        -0.442498
 C        -1.748971        -0.549474         0.625410
 H         1.193402         0.841571         0.410801
 H        -0.801731        -0.136479         2.975974
 H        -1.330349         1.597556         3.019252
 H        -3.205685        -0.585920         2.361896
 H        -4.446057         0.654596         0.447405
 H        -3.042873         2.111511        -0.991520
 H        -3.239309         2.984517         0.657898
 H        -0.800771         2.054992        -0.856519
 H        -0.716275         2.856807         0.810312
 H        -1.194899        -1.541577         0.600061
