19
Iteration:  4616
 O         0.643654         0.292899         0.680645
 C        -0.732735         0.596417         0.708148
 C        -1.377554         0.760666         2.283853
 C        -2.597576        -0.109742         1.675790
 C        -3.309696         0.755313         0.521764
 C        -2.703850         2.159541         0.375788
 C        -1.152809         1.936649         0.054459
 O        -2.809457        -0.290439        -0.501863
 C        -1.771664        -0.636478         0.435043
 H         0.692529         0.242948        -0.235267
 H        -0.679616         0.436124         2.999327
 H        -1.720694         1.761770         2.466222
 H        -3.204253        -0.898263         2.044669
 H        -4.381824         0.856010         0.448823
 H        -3.090205         2.774459        -0.425149
 H        -2.916078         2.706579         1.239560
 H        -1.040950         1.673194        -1.051787
 H        -0.466820         2.728337         0.265255
 H        -1.162533        -1.557293         0.175050
