19
Iteration:  4541charge 0 multiplicity 1
 O         0.601705         0.430010         0.681410
 C        -0.773420         0.608770         0.781027
 C        -1.310214         0.566491         2.278252
 C        -2.608576        -0.095745         1.677473
 C        -3.282027         0.741278         0.570171
 C        -2.658871         2.097001         0.238505
 C        -1.171911         1.804150        -0.022430
 O        -2.797008        -0.208607        -0.478006
 C        -1.839624        -0.528211         0.453260
 H         0.803407         0.861745        -0.199621
 H        -0.735310        -0.174826         2.923337
 H        -1.221939         1.554491         2.935154
 H        -3.272627        -0.589754         2.383983
 H        -4.351277         0.845990         0.506150
 H        -3.164531         2.333972        -0.751797
 H        -2.787982         2.910036         0.958836
 H        -0.775055         1.772713        -1.045240
 H        -0.543691         2.526231         0.462891
 H        -1.467972        -1.591045         0.298625
