19
Iteration:  3860charge 0 multiplicity 1
 O         0.614443         0.241410         0.543281
 C        -0.768963         0.596751         0.760033
 C        -1.321698         0.649336         2.250561
 C        -2.609383        -0.013004         1.713167
 C        -3.326701         0.744259         0.558036
 C        -2.720053         2.084889         0.200384
 C        -1.155378         2.004152         0.046839
 O        -2.790004        -0.285232        -0.423611
 C        -1.765981        -0.604412         0.501257
 H         1.045657         1.024188         0.951936
 H        -0.548173         0.032565         2.809282
 H        -1.515963         1.691715         2.620347
 H        -3.167301        -0.759419         2.202026
 H        -4.388374         0.667713         0.615711
 H        -3.081370         2.554664        -0.773840
 H        -2.922507         2.903870         0.937305
 H        -0.775373         2.082224        -0.984200
 H        -0.747079         2.929915         0.475605
 H        -1.449648        -1.664199         0.303583
