19
Iteration:  3879
 O         0.515128         0.272485         0.457865
 C        -0.765871         0.663417         0.802776
 C        -1.364349         0.740389         2.246460
 C        -2.562672        -0.020724         1.741785
 C        -3.281134         0.655716         0.499710
 C        -2.679648         2.072833         0.261926
 C        -1.176590         1.865048         0.118421
 O        -2.765780        -0.272542        -0.507440
 C        -1.753254        -0.571069         0.503252
 H         1.199060         0.724281         0.865374
 H        -0.891824         0.056758         3.018213
 H        -1.392042         1.738400         2.682464
 H        -3.282457        -0.448994         2.421539
 H        -4.317115         0.878784         0.512619
 H        -3.070727         2.830038        -0.546306
 H        -3.022151         2.708558         1.057628
 H        -0.898163         1.787046        -0.995636
 H        -0.469774         2.693173         0.523562
 H        -1.221557        -1.527907         0.588252
