19
Iteration:   557charge 0 multiplicity 1
 O         0.705710         0.216081         0.629404
 C        -0.691750         0.554381         0.812443
 C        -1.207759         0.736363         2.225239
 C        -2.569002         0.078108         1.728884
 C        -3.360243         0.683280         0.472610
 C        -2.881440         2.049227         0.099639
 C        -1.239531         1.907691         0.165159
 O        -2.720429        -0.192987        -0.503643
 C        -1.815510        -0.520177         0.555137
 H         0.522164        -0.176987        -0.160993
 H        -0.609637         0.024185         2.985471
 H        -1.250836         1.841770         2.575915
 H        -3.222735        -0.311800         2.450117
 H        -4.462890         0.505779         0.586859
 H        -3.164381         2.172903        -0.924099
 H        -3.424674         2.895467         0.858252
 H        -0.953477         2.092306        -0.858412
 H        -0.869306         2.739186         0.820005
 H        -1.510673        -1.702338         0.384382
