19
Iteration:   859
 O         0.562173         0.158476         0.458220
 C        -0.686414         0.643172         0.732387
 C        -1.365402         0.759967         2.269993
 C        -2.542717        -0.028647         1.751310
 C        -3.340586         0.712773         0.564172
 C        -2.713006         2.022359         0.136430
 C        -1.174911         2.015657         0.202621
 O        -2.800632        -0.283697        -0.453183
 C        -1.722053        -0.535248         0.510157
 H         1.290277         0.775208         0.693301
 H        -0.826536         0.372759         3.140302
 H        -1.578762         1.819753         2.346908
 H        -3.270232        -0.678080         2.486591
 H        -4.418917         0.584533         0.611126
 H        -3.014738         2.108649        -0.990328
 H        -3.223483         2.819600         0.649548
 H        -0.835750         2.248093        -0.842269
 H        -0.846342         2.650170         0.939488
 H        -1.293711        -1.471388         0.312665
