19
Iteration:  4549charge 0 multiplicity 1
 O         0.615244         0.425090         0.663413
 C        -0.772118         0.594660         0.820694
 C        -1.278510         0.526663         2.360372
 C        -2.611999        -0.043613         1.687723
 C        -3.283164         0.784859         0.576037
 C        -2.735581         2.090999         0.156553
 C        -1.155678         1.827097         0.014963
 O        -2.833462        -0.178873        -0.485564
 C        -1.765066        -0.581803         0.432364
 H         1.056650         0.814746        -0.181813
 H        -0.777568        -0.336557         2.751310
 H        -1.277587         1.518126         2.809667
 H        -3.303523        -0.624597         2.341020
 H        -4.380409         0.755942         0.584788
 H        -3.281259         2.404601        -0.729185
 H        -2.903655         2.942587         0.793618
 H        -0.851519         1.501876        -1.048368
 H        -0.557736         2.652080         0.425115
 H        -1.383355        -1.634243         0.268520
