19
Iteration:   981
 O         0.576981         0.181302         0.598332
 C        -0.699892         0.671502         0.754559
 C        -1.248095         0.659117         2.260262
 C        -2.544437        -0.002858         1.726294
 C        -3.274462         0.703482         0.549873
 C        -2.806804         2.082628         0.063007
 C        -1.217467         2.030529         0.138345
 O        -2.811778        -0.308396        -0.405377
 C        -1.776836        -0.513227         0.458995
 H         1.258111         0.900372         0.205756
 H        -0.737446        -0.124391         2.899740
 H        -1.193454         1.627699         2.851101
 H        -3.253304        -0.823727         2.355770
 H        -4.417360         0.761442         0.691554
 H        -3.211819         2.253760        -1.006681
 H        -3.256461         2.775549         0.731470
 H        -0.838529         2.153356        -0.947059
 H        -0.815366         2.764836         0.849172
 H        -1.337804        -1.520085         0.304370
