19
Iteration:  1935charge 0 multiplicity 1
 O         0.695311         0.484552         0.742992
 C        -0.698677         0.526426         0.691551
 C        -1.294382         0.639813         2.195098
 C        -2.608825        -0.006591         1.689394
 C        -3.349811         0.733655         0.566664
 C        -2.677292         2.113326         0.345931
 C        -1.184379         1.799589        -0.002367
 O        -2.837521        -0.269459        -0.507169
 C        -1.870801        -0.591498         0.453577
 H         1.033809         0.898392         0.010062
 H        -0.754161        -0.076192         2.775112
 H        -1.226140         1.603320         2.578072
 H        -3.162280        -0.716039         2.341839
 H        -4.456809         0.720572         0.579301
 H        -3.040557         2.656252        -0.528834
 H        -2.907928         2.792605         1.197754
 H        -1.320403         1.481701        -1.070196
 H        -0.454343         2.595001        -0.046445
 H        -1.599968        -1.655996         0.554924
