19
Iteration:  3983charge 0 multiplicity 1
 O         0.666929         0.430068         0.718133
 C        -0.743053         0.564200         0.732297
 C        -1.240727         0.631016         2.218441
 C        -2.574230        -0.017292         1.678096
 C        -3.348559         0.708877         0.528414
 C        -2.672066         2.073217         0.238829
 C        -1.199140         1.887028         0.048263
 O        -2.889344        -0.209483        -0.499354
 C        -1.815090        -0.592188         0.512623
 H         0.937183        -0.155135        -0.116579
 H        -0.570646        -0.113613         2.679520
 H        -1.426283         1.634411         2.742899
 H        -3.274255        -0.682063         2.274568
 H        -4.467814         0.824670         0.567804
 H        -3.200525         2.445816        -0.657758
 H        -2.729081         2.795863         1.117877
 H        -1.017439         1.854592        -1.017789
 H        -0.564881         2.741177         0.343237
 H        -1.389856        -1.611567         0.524423
