19
Iteration:  3725charge 0 multiplicity 1
 O         0.606008         0.363037         0.645972
 C        -0.795024         0.688492         0.764795
 C        -1.255271         0.704285         2.289798
 C        -2.520394        -0.155826         1.709175
 C        -3.292010         0.717828         0.600989
 C        -2.698955         2.083177         0.109754
 C        -1.166122         1.926213         0.120006
 O        -2.862178        -0.232440        -0.502007
 C        -1.838881        -0.596591         0.476266
 H         0.703760         0.008380        -0.304192
 H        -0.548683        -0.001898         2.818328
 H        -1.496413         1.574510         2.929899
 H        -3.244629        -0.766818         2.333784
 H        -4.344834         0.773527         0.763508
 H        -2.905690         2.156602        -0.982652
 H        -2.792484         2.905365         0.794744
 H        -0.864429         1.873704        -0.952049
 H        -0.697241         2.812048         0.675541
 H        -1.289445        -1.516014         0.212549
