19
Iteration:  1859
 O         0.717468         0.252391         0.739050
 C        -0.738473         0.596039         0.745936
 C        -1.190548         0.698183         2.262430
 C        -2.510817         0.016983         1.681983
 C        -3.343412         0.684432         0.548254
 C        -2.796273         2.039150         0.255554
 C        -1.256261         1.998643         0.111267
 O        -2.866529        -0.212273        -0.551349
 C        -1.834612        -0.568219         0.392207
 H         0.953951        -0.136010        -0.234026
 H        -0.665859         0.025592         2.972650
 H        -1.300049         1.710097         2.771612
 H        -3.172352        -0.647124         2.241690
 H        -4.430322         0.548150         0.618239
 H        -3.257911         2.493287        -0.689296
 H        -3.116364         2.862172         0.903402
 H        -0.805785         2.008061        -0.898664
 H        -0.733293         2.777170         0.619927
 H        -1.416125        -1.549173         0.161375
