19
Iteration:  4776charge 0 multiplicity 1
 O         0.706008         0.462758         0.723382
 C        -0.753013         0.548540         0.841253
 C        -1.405771         0.617804         2.235110
 C        -2.550132        -0.120478         1.632066
 C        -3.323026         0.763771         0.528366
 C        -2.632627         2.094097         0.355729
 C        -1.134578         1.846555        -0.012665
 O        -2.915094        -0.229194        -0.506169
 C        -1.794607        -0.555699         0.392025
 H         0.924708         0.206419        -0.136250
 H        -0.784327        -0.007433         2.992589
 H        -1.381523         1.678383         2.596757
 H        -3.343304        -0.563994         2.237893
 H        -4.414267         0.960895         0.527119
 H        -2.974948         2.604969        -0.566903
 H        -2.931627         2.702632         1.293980
 H        -1.264591         1.494011        -1.039735
 H        -0.360030         2.699097         0.009052
 H        -1.374663        -1.528659         0.390761
