19
Iteration:  3987
 O         0.652509         0.410040         0.705119
 C        -0.776545         0.570342         0.734422
 C        -1.228014         0.618251         2.197820
 C        -2.539360        -0.025413         1.664535
 C        -3.335353         0.683453         0.523313
 C        -2.718658         2.096712         0.240092
 C        -1.208783         1.880028         0.031079
 O        -2.864403        -0.193972        -0.496474
 C        -1.818947        -0.568437         0.544385
 H         0.942766        -0.110417         0.017491
 H        -0.671978        -0.084171         2.844434
 H        -1.356579         1.540249         2.729674
 H        -3.227432        -0.562815         2.309098
 H        -4.436528         0.849669         0.515575
 H        -3.121158         2.552104        -0.645087
 H        -2.702805         2.762711         1.088652
 H        -0.953577         1.753845        -1.043261
 H        -0.606353         2.640960         0.515088
 H        -1.346166        -1.537191         0.541416
