19
Iteration:  3967
 O         0.739203         0.424363         0.715896
 C        -0.694668         0.686056         0.811533
 C        -1.362410         0.640358         2.198369
 C        -2.596749        -0.073912         1.686709
 C        -3.327102         0.754534         0.621454
 C        -2.689395         2.084074         0.270366
 C        -1.091955         1.873426        -0.029701
 O        -2.931782        -0.303568        -0.438528
 C        -1.863200        -0.602186         0.352622
 H         0.955719         0.260814        -0.273611
 H        -0.969249        -0.035743         2.990191
 H        -1.283017         1.556107         2.710370
 H        -3.170968        -0.655019         2.373171
 H        -4.399391         0.937669         0.616360
 H        -2.990080         2.487929        -0.728929
 H        -2.976226         2.802624         1.030234
 H        -0.927437         1.562660        -1.107314
 H        -0.533597         2.744952         0.391683
 H        -1.494328        -1.624730         0.069542
