19
Iteration:   933charge 0 multiplicity 1
 O         0.709239         0.395598         0.604821
 C        -0.750514         0.570042         0.781438
 C        -1.409008         0.710818         2.270966
 C        -2.595947        -0.058481         1.664878
 C        -3.347951         0.745239         0.576191
 C        -2.634129         2.102528         0.371503
 C        -1.257501         1.686765        -0.148035
 O        -2.789912        -0.157931        -0.464004
 C        -1.735498        -0.617484         0.468122
 H         0.902699         1.278850         0.659345
 H        -0.837837         0.230621         3.095433
 H        -1.832991         1.710611         2.621747
 H        -3.227336        -0.630281         2.334453
 H        -4.405568         0.747125         0.489174
 H        -3.142362         2.672748        -0.297416
 H        -2.528680         2.646461         1.295419
 H        -1.328540         1.166555        -1.113798
 H        -0.590257         2.625090        -0.061364
 H        -1.321972        -1.609266         0.337857
