19
Iteration:  1551
 O         0.619164         0.186151         0.612401
 C        -0.772678         0.606639         0.770321
 C        -1.309105         0.693463         2.253359
 C        -2.551855        -0.079628         1.731659
 C        -3.292480         0.718062         0.540128
 C        -2.814633         2.116946         0.234740
 C        -1.179957         1.879196        -0.007598
 O        -2.756856        -0.161560        -0.496387
 C        -1.794412        -0.524977         0.465884
 H         1.155544         0.927968         0.839190
 H        -0.646952         0.094560         2.841336
 H        -1.439452         1.607119         2.723471
 H        -3.141602        -0.769440         2.418023
 H        -4.374489         0.688762         0.666773
 H        -3.240013         2.551463        -0.650515
 H        -3.055490         2.602266         1.214019
 H        -0.992683         1.878582        -1.092740
 H        -0.669420         2.804499         0.508684
 H        -1.187086        -1.385633         0.245462
