19
Iteration:  4034charge 0 multiplicity 1
 O         0.598969         0.234184         0.572899
 C        -0.688212         0.603946         0.813921
 C        -1.407020         0.714133         2.267895
 C        -2.590881        -0.019615         1.753116
 C        -3.365289         0.712887         0.519785
 C        -2.744708         2.088134         0.276020
 C        -1.115880         1.853903         0.022993
 O        -2.747106        -0.226268        -0.469691
 C        -1.749090        -0.481589         0.460226
 H         0.738549         0.536719        -0.318201
 H        -0.770802         0.135205         2.981589
 H        -1.505730         1.707306         2.643396
 H        -3.065156        -0.842344         2.231223
 H        -4.440517         0.665653         0.572991
 H        -3.284788         2.606915        -0.569144
 H        -2.770910         2.543204         1.233432
 H        -1.027117         1.840219        -1.097891
 H        -0.654685         2.836891         0.401472
 H        -1.288616        -1.504924         0.343109
