19
Iteration:  2400
 O         0.591923         0.400010         0.739163
 C        -0.785399         0.585217         0.691497
 C        -1.356242         0.746060         2.184470
 C        -2.465763        -0.090585         1.642260
 C        -3.293148         0.762508         0.695346
 C        -2.676361         2.030099         0.325910
 C        -1.212786         1.794850        -0.063593
 O        -2.846124        -0.185008        -0.421279
 C        -1.716827        -0.592583         0.368599
 H         0.832818         0.183249        -0.171307
 H        -0.887345         0.231853         2.987557
 H        -1.518347         1.737884         2.641744
 H        -3.029675        -0.710989         2.227940
 H        -4.397528         0.684154         0.731909
 H        -3.320250         2.257611        -0.558814
 H        -2.714553         2.879561         0.962206
 H        -1.153075         1.673866        -1.201296
 H        -0.707051         2.707337         0.466846
 H        -1.332850        -1.591860         0.138502
