19
Iteration:  4941charge 0 multiplicity 1
 O         0.581545         0.387246         0.754420
 C        -0.776230         0.655653         0.811104
 C        -1.261426         0.642554         2.221085
 C        -2.567893        -0.212853         1.694573
 C        -3.256911         0.767551         0.600686
 C        -2.618847         2.122391         0.183017
 C        -1.170066         1.862216         0.047993
 O        -2.905798        -0.198675        -0.527761
 C        -1.826946        -0.629867         0.406648
 H         0.991782         0.670501        -0.109264
 H        -0.593762         0.165959         2.953952
 H        -1.470660         1.646807         2.659407
 H        -3.086921        -0.665764         2.505105
 H        -4.339499         0.831509         0.603394
 H        -3.070396         2.508614        -0.722016
 H        -2.958239         2.650631         1.081758
 H        -1.041593         1.709272        -1.044676
 H        -0.489000         2.783926         0.242210
 H        -1.393727        -1.496518         0.066200
