19
Iteration:  1732
 O         0.544281         0.232459         0.438666
 C        -0.758958         0.674669         0.794797
 C        -1.342105         0.596257         2.285353
 C        -2.560336        -0.095664         1.689371
 C        -3.262285         0.701896         0.551676
 C        -2.687480         2.102936         0.081236
 C        -1.179764         2.018901         0.168455
 O        -2.823632        -0.228533        -0.433841
 C        -1.767800        -0.553084         0.550421
 H         1.156426         0.966276         0.845348
 H        -0.767162        -0.138821         2.914184
 H        -1.455903         1.487023         2.791384
 H        -3.240187        -0.737356         2.322379
 H        -4.364230         0.663750         0.716808
 H        -3.034688         2.335424        -1.019205
 H        -3.025588         2.884929         0.789351
 H        -0.608674         2.099902        -0.864686
 H        -0.779838         2.818182         0.946409
 H        -1.086766        -1.482638         0.454025
