19
Iteration:  2643charge 0 multiplicity 1
 O         0.692803         0.287722         0.649782
 C        -0.739237         0.652263         0.800901
 C        -1.291796         0.746627         2.198076
 C        -2.592622        -0.146660         1.715458
 C        -3.365570         0.711988         0.651318
 C        -2.708108         2.047055         0.243524
 C        -1.171691         1.876837        -0.029696
 O        -2.883785        -0.216396        -0.483362
 C        -1.777258        -0.576094         0.435141
 H         1.140996         0.990250         0.292743
 H        -0.710307         0.424626         3.100149
 H        -1.700837         1.789744         2.324059
 H        -3.027170        -0.932645         2.176605
 H        -4.426115         0.762359         0.923033
 H        -3.217595         2.615270        -0.564619
 H        -2.713971         2.924726         0.883541
 H        -0.867444         1.661055        -1.056736
 H        -0.730231         2.734343         0.336523
 H        -1.313344        -1.547390         0.185747
