19
Iteration:  2226
 O         0.661755         0.382708         0.658356
 C        -0.744658         0.590394         0.746425
 C        -1.376258         0.718138         2.331027
 C        -2.511247        -0.046349         1.668483
 C        -3.332244         0.671125         0.617276
 C        -2.686403         2.083093         0.332887
 C        -1.188358         1.772253        -0.122370
 O        -2.879969        -0.165770        -0.522126
 C        -1.754247        -0.596160         0.469230
 H         1.053111         0.907358        -0.171164
 H        -0.869900         0.027809         2.961564
 H        -1.552870         1.706816         2.824686
 H        -3.087223        -0.662561         2.293347
 H        -4.372214         0.598793         0.841916
 H        -3.279864         2.463952        -0.615106
 H        -2.669546         2.771512         1.274855
 H        -1.084727         1.575247        -1.176289
 H        -0.572999         2.726827        -0.000682
 H        -1.327463        -1.580568         0.510680
