19
Iteration:   702charge 0 multiplicity 1
 O         0.634384         0.362597         0.433071
 C        -0.755857         0.542096         0.819518
 C        -1.334091         0.791599         2.319074
 C        -2.618774         0.040661         1.731391
 C        -3.269955         0.722062         0.442208
 C        -2.734973         2.052264         0.200520
 C        -1.193326         1.898484         0.133336
 O        -2.697186        -0.291148        -0.503995
 C        -1.827145        -0.634546         0.649273
 H         0.598541        -0.069118        -0.452529
 H        -0.952282         0.186468         3.159259
 H        -1.438956         1.900997         2.565982
 H        -3.428359        -0.402574         2.384832
 H        -4.306616         0.640422         0.499983
 H        -3.105651         2.567008        -0.717954
 H        -3.039349         2.639769         1.136894
 H        -0.820857         1.816984        -0.848318
 H        -0.691637         2.616126         0.728066
 H        -1.368801        -1.674527         0.568649
