19
Iteration:  2939charge 0 multiplicity 1
 O         0.601716         0.246730         0.695243
 C        -0.753964         0.606364         0.778229
 C        -1.248445         0.685497         2.164750
 C        -2.508061         0.008371         1.659548
 C        -3.365169         0.676206         0.553625
 C        -2.749683         2.083535         0.315575
 C        -1.298628         1.831377        -0.051194
 O        -2.734235        -0.156679        -0.460808
 C        -1.771687        -0.569386         0.494320
 H         1.171942         0.941573         0.572133
 H        -0.681974         0.053967         2.922773
 H        -1.151833         1.668387         2.688236
 H        -3.223003        -0.560784         2.205106
 H        -4.467865         0.891658         0.408496
 H        -3.420788         2.616867        -0.436582
 H        -2.836034         2.577590         1.260881
 H        -1.242317         1.663069        -1.139174
 H        -0.653057         2.708058         0.080341
 H        -1.400987        -1.553855         0.149246
