19
Iteration:  1448
 O         0.676624         0.318115         0.537301
 C        -0.751768         0.577180         0.786830
 C        -1.248969         0.644571         2.319431
 C        -2.631503        -0.016786         1.754605
 C        -3.332173         0.704889         0.506982
 C        -2.796284         2.045946         0.122142
 C        -1.184916         1.958460         0.178018
 O        -2.748996        -0.181242        -0.537748
 C        -1.777615        -0.508430         0.527781
 H         0.556675        -0.634035         0.092659
 H        -0.577172        -0.070007         2.819973
 H        -1.229472         1.502766         2.866946
 H        -3.367048        -0.473148         2.403089
 H        -4.450319         0.714457         0.597804
 H        -3.273029         2.362385        -0.855975
 H        -3.155063         2.817089         0.823793
 H        -0.849385         1.943956        -0.904275
 H        -0.683909         2.749157         0.708046
 H        -1.503149        -1.648632         0.540122
