19
Iteration:   551
 O         0.647937         0.234506         0.667781
 C        -0.695892         0.559005         0.807432
 C        -1.210929         0.749819         2.223402
 C        -2.512445         0.068706         1.694807
 C        -3.367386         0.719184         0.517055
 C        -2.816969         2.031600         0.116627
 C        -1.289213         1.868535         0.152649
 O        -2.755620        -0.181865        -0.501378
 C        -1.805674        -0.538377         0.529619
 H         0.802345        -0.198041        -0.274975
 H        -0.789659         0.193530         2.978760
 H        -1.170039         1.729093         2.607654
 H        -3.031641        -0.618408         2.476424
 H        -4.445205         0.573502         0.535578
 H        -3.147727         2.136382        -0.958796
 H        -3.280524         2.776538         0.595050
 H        -0.896471         2.202179        -0.865784
 H        -0.854465         2.655934         0.755169
 H        -1.452560        -1.476978         0.432065
