19
Iteration:  4379
 O         0.565928         0.198705         0.551847
 C        -0.797603         0.698151         0.864045
 C        -1.437043         0.700241         2.310226
 C        -2.513003        -0.072529         1.684129
 C        -3.272452         0.702940         0.585630
 C        -2.702409         2.036801         0.279423
 C        -1.192552         1.761336        -0.083200
 O        -2.758879        -0.116069        -0.480950
 C        -1.719647        -0.499865         0.465351
 H         1.212387         1.003683         0.524935
 H        -0.647551         0.265207         2.939753
 H        -1.607793         1.704879         2.707351
 H        -3.133463        -0.798057         2.164990
 H        -4.356877         0.705871         0.820190
 H        -3.418428         2.508681        -0.468958
 H        -2.897526         2.834094         1.099517
 H        -0.957841         1.454927        -1.133068
 H        -0.666095         2.797501         0.139761
 H        -1.199472        -1.413452         0.239899
