19
Iteration:  4212
 O         0.607597         0.463708         0.691931
 C        -0.740734         0.572388         0.772652
 C        -1.291125         0.624879         2.249430
 C        -2.531707        -0.140748         1.732479
 C        -3.301070         0.747333         0.535511
 C        -2.658328         2.064442         0.218568
 C        -1.141192         1.816964        -0.016220
 O        -2.860694        -0.158874        -0.444791
 C        -1.829262        -0.594217         0.459031
 H         0.888940         0.707751        -0.152688
 H        -0.729433        -0.057521         2.838129
 H        -1.627820         1.508827         2.803146
 H        -3.355601        -0.725740         2.207833
 H        -4.353078         0.697455         0.696437
 H        -3.191394         2.603590        -0.624997
 H        -2.823243         2.798324         1.027266
 H        -1.029776         1.620982        -1.087798
 H        -0.606699         2.812733         0.257065
 H        -1.573476        -1.617498         0.109298
