19
Iteration:  2885
 O         0.637906         0.282628         0.505744
 C        -0.739877         0.588581         0.790109
 C        -1.324601         0.698731         2.298795
 C        -2.538854        -0.060836         1.737817
 C        -3.346575         0.693821         0.586038
 C        -2.713313         2.100101         0.178904
 C        -1.192568         1.897314         0.127662
 O        -2.849485        -0.247123        -0.521047
 C        -1.753743        -0.543651         0.480353
 H         1.027223         1.112345         0.554955
 H        -0.810302        -0.078759         2.859974
 H        -1.447225         1.718704         2.566521
 H        -3.158719        -0.612924         2.370920
 H        -4.446955         0.825518         0.661902
 H        -3.159384         2.299300        -0.836728
 H        -2.989474         2.907342         0.860309
 H        -0.781845         1.994144        -0.909607
 H        -0.534179         2.661298         0.688107
 H        -1.376154        -1.575396         0.465283
