19
Iteration:   810charge 0 multiplicity 1
 O         0.688380         0.331063         0.624364
 C        -0.741334         0.595854         0.807272
 C        -1.262536         0.648103         2.253273
 C        -2.626989         0.069112         1.710712
 C        -3.338853         0.737360         0.486332
 C        -2.744541         2.117602         0.238914
 C        -1.280996         1.792905        -0.088013
 O        -2.762436        -0.262019        -0.467134
 C        -1.767665        -0.554786         0.564170
 H         1.108131         1.248138         0.544692
 H        -0.816644        -0.274693         2.701187
 H        -1.235706         1.500604         3.000018
 H        -3.242845        -0.523025         2.284740
 H        -4.445984         0.641949         0.448003
 H        -3.332091         2.700382        -0.378847
 H        -2.805821         2.628537         1.223805
 H        -1.234580         1.363284        -1.094429
 H        -0.547233         2.719053         0.042634
 H        -1.479465        -1.667408         0.476313
