19
Iteration:   461
 O         0.665083         0.346380         0.732526
 C        -0.748854         0.602618         0.796099
 C        -1.291017         0.693715         2.216046
 C        -2.566790        -0.049171         1.711245
 C        -3.311804         0.714283         0.554766
 C        -2.806927         2.107195         0.214817
 C        -1.192961         1.830850        -0.088256
 O        -2.733299        -0.166086        -0.487947
 C        -1.837147        -0.636905         0.527070
 H         0.892425         0.451200        -0.239159
 H        -0.771432         0.165856         3.038550
 H        -1.400005         1.691425         2.674755
 H        -3.297166        -0.608748         2.353453
 H        -4.356003         0.599873         0.725722
 H        -3.286591         2.579823        -0.632700
 H        -2.997120         2.800855         1.032434
 H        -1.040054         1.556556        -1.203374
 H        -0.519666         2.722673         0.222767
 H        -1.437661        -1.677851         0.376224
