19
Iteration:  3627
 O         0.652844         0.212708         0.567248
 C        -0.778504         0.700993         0.791229
 C        -1.349646         0.693945         2.280787
 C        -2.559526        -0.075933         1.698286
 C        -3.298220         0.688049         0.595541
 C        -2.718653         2.127985         0.232390
 C        -1.190518         1.923052        -0.012236
 O        -2.860345        -0.251280        -0.457688
 C        -1.777369        -0.562038         0.462212
 H         1.145543         0.879052         1.080499
 H        -0.600003         0.257207         3.006419
 H        -1.462469         1.797335         2.502802
 H        -3.218692        -0.797742         2.207920
 H        -4.320428         0.486854         0.754536
 H        -3.019102         2.506697        -0.804795
 H        -2.948903         2.654800         1.148187
 H        -0.927583         1.827354        -1.110147
 H        -0.509139         2.748641         0.168266
 H        -1.131384        -1.386414         0.150863
