19
Iteration:  1263
 O         0.592268         0.346009         0.526934
 C        -0.742524         0.653626         0.868062
 C        -1.367346         0.572875         2.360844
 C        -2.545241        -0.039708         1.716951
 C        -3.334320         0.757328         0.531838
 C        -2.656512         2.077021         0.197870
 C        -1.227978         1.850188         0.014394
 O        -2.815203        -0.225690        -0.500568
 C        -1.737530        -0.561373         0.462097
 H         1.084036         1.110498         0.434658
 H        -0.769085        -0.069095         3.087735
 H        -1.297374         1.538997         3.017509
 H        -3.101738        -0.709235         2.335068
 H        -4.417396         0.923234         0.518049
 H        -3.101868         2.464220        -0.681471
 H        -2.800800         2.840599         0.997963
 H        -1.053429         1.446792        -1.045916
 H        -0.576647         2.714270         0.118373
 H        -1.439572        -1.591103         0.405728
