19
Iteration:  2077
 O         0.613164         0.348389         0.726836
 C        -0.733644         0.653007         0.749438
 C        -1.360504         0.755521         2.191982
 C        -2.462016        -0.122780         1.679633
 C        -3.323791         0.710825         0.661035
 C        -2.693076         2.053774         0.300000
 C        -1.146632         1.815131        -0.072689
 O        -2.904925        -0.193508        -0.427365
 C        -1.760738        -0.605282         0.385101
 H         1.108175         1.046154         0.231515
 H        -0.748149         0.142045         2.866733
 H        -1.559215         1.777165         2.547137
 H        -3.146653        -0.699267         2.438470
 H        -4.450809         0.750838         0.629428
 H        -3.140231         2.222813        -0.624845
 H        -2.933181         2.965440         0.828148
 H        -1.136233         1.441878        -1.147175
 H        -0.506695         2.708566         0.034007
 H        -1.429973        -1.642143         0.118226
