19
Iteration:  2220charge 0 multiplicity 1
 O         0.650664         0.333969         0.679485
 C        -0.727464         0.661269         0.696364
 C        -1.335268         0.690633         2.309104
 C        -2.534396        -0.055635         1.634754
 C        -3.318054         0.722800         0.627298
 C        -2.691515         2.070474         0.303620
 C        -1.204563         1.848786        -0.086178
 O        -2.865228        -0.244405        -0.484429
 C        -1.783580        -0.583796         0.459878
 H         1.124231         0.906680         0.022304
 H        -0.832873        -0.080997         2.977931
 H        -1.485890         1.676888         2.759546
 H        -3.164806        -0.640992         2.428144
 H        -4.430291         0.665053         0.841570
 H        -3.260609         2.444054        -0.465811
 H        -2.764444         2.848979         1.005241
 H        -1.169386         1.654060        -1.198274
 H        -0.622175         2.703217         0.174952
 H        -1.198452        -1.550746         0.433620
