19
Iteration:  2477charge 0 multiplicity 1
 O         0.652239         0.420868         0.514046
 C        -0.758415         0.552016         0.767798
 C        -1.264113         0.724345         2.319652
 C        -2.622282        -0.037057         1.664058
 C        -3.317081         0.758209         0.591209
 C        -2.674749         2.079352         0.271361
 C        -1.235457         1.784604         0.031347
 O        -2.734615        -0.232096        -0.474539
 C        -1.806793        -0.626882         0.557564
 H         0.718627         0.776925        -0.477427
 H        -0.930911         0.001758         3.068240
 H        -1.420048         1.756667         2.779898
 H        -3.206203        -0.690448         2.191756
 H        -4.436567         0.675683         0.603152
 H        -3.151145         2.448473        -0.672401
 H        -3.137471         2.837869         0.864746
 H        -1.017857         1.721778        -1.108961
 H        -0.580138         2.686022         0.513431
 H        -1.739703        -1.734032         0.609746
