19
Iteration:  4351
 O         0.677998         0.287742         0.563169
 C        -0.772284         0.625182         0.780872
 C        -1.340627         0.658820         2.202866
 C        -2.560410        -0.049298         1.738588
 C        -3.322641         0.739534         0.490550
 C        -2.715761         2.126030         0.312223
 C        -1.195445         1.852764        -0.017460
 O        -2.827495        -0.263463        -0.452945
 C        -1.808509        -0.565908         0.486995
 H         1.249057         0.934539         1.161784
 H        -0.647190         0.164388         2.907772
 H        -1.389979         1.653620         2.682464
 H        -3.188820        -0.683073         2.416882
 H        -4.416348         0.767770         0.588698
 H        -3.215534         2.666985        -0.493077
 H        -2.948868         2.883458         1.038984
 H        -0.994767         1.726169        -1.096004
 H        -0.612755         2.681307         0.290165
 H        -1.232415        -1.521042         0.234768
