19
Iteration:  4398
 O         0.568913         0.228316         0.660181
 C        -0.778254         0.602903         0.742782
 C        -1.267186         0.699254         2.241573
 C        -2.547321        -0.099593         1.744276
 C        -3.342365         0.729359         0.551712
 C        -2.730963         2.146260         0.261084
 C        -1.254961         1.945724         0.004291
 O        -2.749042        -0.221550        -0.478864
 C        -1.723698        -0.592544         0.431321
 H         1.157685         0.903012         0.346347
 H        -0.806479         0.108286         3.020494
 H        -1.405229         1.673947         2.752546
 H        -3.199441        -0.717867         2.401838
 H        -4.408320         0.681203         0.411181
 H        -3.139286         2.746373        -0.589134
 H        -2.894013         2.913187         0.993829
 H        -1.247820         1.656148        -1.019290
 H        -0.502790         2.697951         0.102274
 H        -1.310864        -1.637295         0.393531
