19
Iteration:  2195
 O         0.584322         0.222323         0.660633
 C        -0.783325         0.670805         0.703762
 C        -1.199729         0.662424         2.212273
 C        -2.489899        -0.060849         1.734583
 C        -3.359556         0.649699         0.465647
 C        -2.773155         2.122790         0.128631
 C        -1.142207         2.019776         0.083507
 O        -2.921921        -0.294363        -0.385081
 C        -1.746393        -0.539287         0.485398
 H         1.041539         0.940585         0.366215
 H        -0.553109        -0.108574         2.623876
 H        -1.105830         1.670646         2.741782
 H        -2.953625        -0.730507         2.492375
 H        -4.420718         0.544240         0.641067
 H        -3.257923         2.575918        -0.735238
 H        -3.103309         2.861005         0.889339
 H        -0.809633         1.981142        -0.901199
 H        -0.699625         2.873669         0.641561
 H        -1.187954        -1.452308         0.503168
