19
Iteration:   465charge 0 multiplicity 1
 O         0.679574         0.374683         0.749687
 C        -0.723626         0.568852         0.797135
 C        -1.281160         0.705071         2.210225
 C        -2.598787        -0.042977         1.715937
 C        -3.337903         0.712015         0.569097
 C        -2.773767         2.097453         0.232866
 C        -1.214548         1.824766        -0.085067
 O        -2.720446        -0.139977        -0.496477
 C        -1.845130        -0.664254         0.515350
 H         1.016230         0.567299        -0.187019
 H        -0.628615         0.113375         2.847849
 H        -1.404622         1.730003         2.547867
 H        -3.337686        -0.586893         2.380011
 H        -4.471636         0.575099         0.682868
 H        -3.241643         2.577487        -0.715718
 H        -2.963145         2.759714         1.064900
 H        -1.236750         1.452373        -1.196572
 H        -0.561972         2.623067         0.099561
 H        -1.586081        -1.658853         0.404827
