19
Iteration:  1745charge 0 multiplicity 1
 O         0.491383         0.214512         0.516990
 C        -0.832244         0.631285         0.776643
 C        -1.341095         0.667781         2.256262
 C        -2.545650        -0.080931         1.730781
 C        -3.282741         0.746064         0.554007
 C        -2.664660         2.101097         0.171062
 C        -1.132028         2.024303         0.192883
 O        -2.848516        -0.308318        -0.455635
 C        -1.643537        -0.562299         0.433527
 H         1.135646         0.974474         0.537600
 H        -0.722546         0.039037         2.868086
 H        -1.499324         1.540414         2.684748
 H        -3.120466        -0.767072         2.438569
 H        -4.385954         0.934054         0.479698
 H        -3.159971         2.212195        -0.827834
 H        -3.120232         2.964451         0.714659
 H        -0.650429         2.253711        -0.806735
 H        -0.720504         2.864936         0.841767
 H        -1.119638        -1.538031         0.141334
