19
Iteration:  1162
 O         0.505653         0.267263         0.424067
 C        -0.737804         0.552737         0.816691
 C        -1.298192         0.704230         2.287913
 C        -2.593355         0.056574         1.768226
 C        -3.265505         0.691007         0.535732
 C        -2.728609         2.075633         0.117223
 C        -1.225772         1.926397         0.124501
 O        -2.727142        -0.237787        -0.481054
 C        -1.738746        -0.621806         0.591738
 H         1.020711         1.164688         0.457755
 H        -1.099988        -0.175203         2.970985
 H        -1.321502         1.744359         2.733947
 H        -3.174340        -0.537005         2.353973
 H        -4.389985         0.599791         0.544447
 H        -3.115034         2.468952        -0.802591
 H        -3.043424         2.908389         0.753118
 H        -0.821294         1.972853        -0.884976
 H        -0.707390         2.661366         0.753648
 H        -1.124233        -1.588555         0.558412
