19
Iteration:  2025
 O         0.660956         0.368793         0.547546
 C        -0.738494         0.587742         0.807253
 C        -1.203437         0.656894         2.174309
 C        -2.640219         0.090009         1.695537
 C        -3.363819         0.754020         0.485282
 C        -2.772891         2.137379         0.194215
 C        -1.267181         1.851499         0.199411
 O        -2.737175        -0.357825        -0.481235
 C        -1.770409        -0.580516         0.589595
 H         0.678216         0.067950        -0.302916
 H        -0.700921        -0.202987         2.731646
 H        -0.987481         1.564537         2.734155
 H        -3.381786        -0.460780         2.343944
 H        -4.458785         0.601572         0.471913
 H        -3.110788         2.796403        -0.737420
 H        -3.066216         2.888693         0.960915
 H        -0.899102         1.865633        -0.897704
 H        -0.796974         2.715607         0.623815
 H        -1.351095        -1.660843         0.702194
