19
Iteration:  2767charge 0 multiplicity 1
 O         0.622252         0.252134         0.630966
 C        -0.745570         0.637736         0.756112
 C        -1.254418         0.608165         2.259685
 C        -2.512078        -0.023085         1.670791
 C        -3.387043         0.750480         0.589968
 C        -2.760364         2.092897         0.189058
 C        -1.210796         1.901303         0.029927
 O        -2.831739        -0.288076        -0.439613
 C        -1.758341        -0.441441         0.432389
 H         1.302888         0.913969         0.810648
 H        -0.609919        -0.185620         2.657505
 H        -1.489788         1.539057         2.799587
 H        -3.061906        -0.673233         2.412245
 H        -4.430706         0.472136         0.605369
 H        -3.199080         2.434463        -0.768447
 H        -2.913453         2.842026         1.034013
 H        -1.069017         1.916617        -1.063841
 H        -0.704809         2.749701         0.382919
 H        -1.307089        -1.434603         0.369506
