19
Iteration:  4673
 O         0.650946         0.421913         0.752200
 C        -0.734894         0.552372         0.815696
 C        -1.292580         0.529664         2.202319
 C        -2.544531        -0.002336         1.675147
 C        -3.264226         0.792393         0.557970
 C        -2.758808         2.177119         0.182606
 C        -1.202699         1.862034         0.027580
 O        -2.867717        -0.242736        -0.468892
 C        -1.812595        -0.663687         0.445972
 H         1.045852         0.565466        -0.213285
 H        -0.705083        -0.201917         2.745906
 H        -1.460904         1.453701         2.826823
 H        -3.155257        -0.664656         2.282684
 H        -4.352496         0.867962         0.594055
 H        -3.133395         2.688029        -0.707216
 H        -2.768700         2.965014         0.892836
 H        -0.891168         1.848978        -1.137744
 H        -0.653655         2.689682         0.507850
 H        -1.510236        -1.733828         0.233875
