19
Iteration:  2768
 O         0.627936         0.258688         0.633845
 C        -0.746207         0.635711         0.750989
 C        -1.252669         0.606710         2.261252
 C        -2.511790        -0.025001         1.674013
 C        -3.390427         0.745200         0.579808
 C        -2.763099         2.101701         0.191189
 C        -1.215427         1.893782         0.030652
 O        -2.836395        -0.285027        -0.440171
 C        -1.755681        -0.439251         0.432073
 H         1.259817         0.903219         0.817067
 H        -0.622949        -0.170199         2.655236
 H        -1.450843         1.523163         2.806040
 H        -3.078994        -0.656913         2.453449
 H        -4.423826         0.457244         0.606618
 H        -3.164379         2.424121        -0.751805
 H        -2.876310         2.832419         1.032997
 H        -1.062884         1.925788        -1.043818
 H        -0.690863         2.708627         0.347949
 H        -1.308218        -1.439552         0.373689
