19
Iteration:   191
 O         0.643798         0.426045         0.890125
 C        -0.740258         0.669898         0.744416
 C        -1.344677         0.691901         2.259414
 C        -2.494968        -0.171401         1.634902
 C        -3.278862         0.775422         0.640151
 C        -2.679236         2.180327         0.315055
 C        -1.240187         1.764614        -0.261580
 O        -2.886229        -0.196432        -0.427545
 C        -1.731586        -0.615813         0.355327
 H         0.802046        -0.262915         0.323054
 H        -0.792177         0.029015         2.860447
 H        -1.570811         1.649081         2.710182
 H        -3.113429        -0.943871         2.193018
 H        -4.414798         0.844280         0.837456
 H        -3.345230         2.628983        -0.534645
 H        -2.673613         2.797076         1.108971
 H        -1.395873         1.299673        -1.315606
 H        -0.529843         2.634542        -0.495813
 H        -1.342253        -1.562690         0.109905
