19
Iteration:  2988charge 0 multiplicity 1
 O         0.542927         0.280242         0.551296
 C        -0.761346         0.667669         0.813174
 C        -1.369285         0.638892         2.224437
 C        -2.520484        -0.043347         1.722818
 C        -3.261641         0.711100         0.539831
 C        -2.667964         2.109605         0.180720
 C        -1.135883         1.876958         0.050927
 O        -2.881963        -0.274993        -0.428417
 C        -1.758018        -0.570758         0.493696
 H         1.153900         1.129131         0.695810
 H        -0.672915         0.221598         2.892507
 H        -1.490074         1.497991         2.813573
 H        -3.184552        -0.800753         2.187619
 H        -4.313731         0.738828         0.591291
 H        -3.039089         2.516069        -0.722985
 H        -2.870763         2.785481         1.060920
 H        -0.988680         2.011934        -1.026188
 H        -0.717647         2.892475         0.386850
 H        -1.137884        -1.452263         0.283142
