19
Iteration:  3643
 O         0.559795         0.261824         0.543695
 C        -0.740552         0.659864         0.799662
 C        -1.406531         0.716645         2.278422
 C        -2.528064        -0.157258         1.706415
 C        -3.321234         0.733299         0.570327
 C        -2.685198         2.068838         0.297841
 C        -1.184169         1.855249        -0.095745
 O        -2.774758        -0.199351        -0.444533
 C        -1.714050        -0.533841         0.468028
 H         1.262152         0.903414         1.031128
 H        -0.888260         0.149624         3.052303
 H        -1.751505         1.631232         2.742791
 H        -3.009717        -0.835227         2.443136
 H        -4.432795         1.029391         0.497393
 H        -3.293280         2.579879        -0.447167
 H        -2.746867         2.897600         1.058683
 H        -1.127794         1.634226        -1.215168
 H        -0.582955         2.808613        -0.033999
 H        -1.406595        -1.602666         0.417660
