19
Iteration:  3990charge 0 multiplicity 1
 O         0.635336         0.396950         0.701405
 C        -0.795033         0.587022         0.742946
 C        -1.229653         0.606033         2.182573
 C        -2.525981        -0.027738         1.669488
 C        -3.326679         0.691210         0.521139
 C        -2.748596         2.109139         0.245575
 C        -1.213654         1.861009         0.010947
 O        -2.835322        -0.192036        -0.490096
 C        -1.813935        -0.553028         0.544384
 H         0.990030        -0.176896        -0.039629
 H        -0.776368        -0.060464         2.966640
 H        -1.257328         1.530479         2.732801
 H        -3.166094        -0.508661         2.363555
 H        -4.382582         0.790382         0.507956
 H        -3.112752         2.685107        -0.671618
 H        -2.794329         2.763257         1.100329
 H        -0.892665         1.692299        -1.051741
 H        -0.617650         2.607496         0.641547
 H        -1.326991        -1.563980         0.502491
