19
Iteration:  2088
 O         0.672689         0.311635         0.766303
 C        -0.713275         0.630335         0.738989
 C        -1.314327         0.734654         2.187608
 C        -2.506841        -0.089245         1.711268
 C        -3.280175         0.664688         0.626125
 C        -2.721983         2.048341         0.275232
 C        -1.199907         1.827638        -0.131595
 O        -2.950355        -0.162225        -0.499105
 C        -1.773779        -0.574970         0.441418
 H         1.126023         1.010663         0.447267
 H        -0.616413         0.530487         3.021744
 H        -1.677424         1.728051         2.449018
 H        -3.111748        -0.810189         2.430609
 H        -4.366639         0.661053         0.957499
 H        -3.253334         2.491173        -0.516823
 H        -2.781388         2.638693         1.192723
 H        -1.130142         1.609548        -1.256664
 H        -0.647174         2.766520         0.027599
 H        -1.352370        -1.602155         0.222603
