19
Iteration:  3883
 O         0.505010         0.261725         0.436760
 C        -0.770566         0.642405         0.840131
 C        -1.354716         0.732534         2.262706
 C        -2.590698         0.031605         1.736882
 C        -3.316897         0.671903         0.509734
 C        -2.693710         2.075448         0.274157
 C        -1.169558         1.860257         0.127315
 O        -2.739365        -0.292127        -0.522801
 C        -1.718790        -0.555628         0.486887
 H         1.221864         0.801161         0.938408
 H        -0.780347         0.074691         2.971189
 H        -1.455856         1.829085         2.568123
 H        -3.261385        -0.540590         2.380492
 H        -4.424679         0.699703         0.567993
 H        -2.895957         2.828517        -0.538576
 H        -2.932864         2.737939         1.164327
 H        -0.932502         1.695809        -0.914913
 H        -0.531148         2.745526         0.330857
 H        -1.258203        -1.580542         0.482195
