19
Iteration:  2895charge 0 multiplicity 1
 O         0.606375         0.377235         0.456657
 C        -0.794192         0.604405         0.816719
 C        -1.316486         0.698027         2.317268
 C        -2.624184        -0.071031         1.665438
 C        -3.328659         0.734394         0.561217
 C        -2.672889         2.052196         0.249674
 C        -1.082228         1.855481         0.067944
 O        -2.840909        -0.267604        -0.438931
 C        -1.757490        -0.567045         0.478341
 H         1.145545         1.102613         0.499888
 H        -0.852073         0.123368         3.126730
 H        -1.231855         1.547994         2.968210
 H        -3.323627        -0.629588         2.199452
 H        -4.448438         0.728268         0.475324
 H        -3.011726         2.396710        -0.789058
 H        -3.045177         2.773181         0.943964
 H        -0.666858         1.645286        -0.940897
 H        -0.771438         2.792880         0.562519
 H        -1.505027        -1.599821         0.224548
