19
Iteration:  1058charge 0 multiplicity 1
 O         0.640256         0.236667         0.652359
 C        -0.770702         0.654827         0.799329
 C        -1.317244         0.714811         2.170743
 C        -2.556381         0.006061         1.670415
 C        -3.359601         0.676136         0.525968
 C        -2.712556         2.095562         0.351376
 C        -1.273885         1.833225        -0.074902
 O        -2.807571        -0.255136        -0.465029
 C        -1.697861        -0.508438         0.498405
 H         1.080760         1.023761         0.775559
 H        -0.657729         0.158770         2.838175
 H        -1.226520         1.726781         2.615395
 H        -3.170547        -0.729872         2.383595
 H        -4.487922         0.693584         0.518359
 H        -3.265227         2.624747        -0.449441
 H        -2.701461         2.645789         1.163860
 H        -1.158709         1.525468        -1.156667
 H        -0.661887         2.748517        -0.043162
 H        -1.192592        -1.478455         0.497973
