19
Iteration:  3199charge 0 multiplicity 1
 O         0.608262         0.191279         0.640779
 C        -0.763241         0.600782         0.789514
 C        -1.280038         0.661152         2.182957
 C        -2.540805        -0.064352         1.671472
 C        -3.333215         0.720645         0.585198
 C        -2.852664         2.150000         0.270602
 C        -1.196259         1.864497         0.025679
 O        -2.761814        -0.181601        -0.494398
 C        -1.701176        -0.514189         0.440814
 H         1.127159         0.789762         1.090721
 H        -0.792136         0.155726         2.992981
 H        -1.497412         1.694027         2.504973
 H        -3.171348        -0.726659         2.431582
 H        -4.429654         0.724480         0.758577
 H        -3.340422         2.632080        -0.638614
 H        -2.969374         2.808511         1.164251
 H        -1.068059         1.736501        -1.080019
 H        -0.499080         2.823407         0.099950
 H        -1.268203        -1.506245         0.172485
