19
Iteration:  3295
 O         0.512728         0.143853         0.530094
 C        -0.725957         0.658267         0.813994
 C        -1.336593         0.682898         2.260646
 C        -2.536205        -0.097336         1.680910
 C        -3.375714         0.724028         0.533033
 C        -2.728519         2.089007         0.225909
 C        -1.204674         1.970766         0.088675
 O        -2.767115        -0.178055        -0.501633
 C        -1.652870        -0.522175         0.514703
 H         1.211715         0.778601         0.378222
 H        -0.782924         0.163941         3.083501
 H        -1.445350         1.660389         2.897681
 H        -3.162421        -0.779459         2.355749
 H        -4.462672         0.652881         0.607312
 H        -3.214917         2.270685        -0.745899
 H        -3.153363         2.764765         1.048903
 H        -0.988730         1.999534        -0.980198
 H        -0.561468         2.754721         0.383642
 H        -1.021246        -1.473680         0.532882
