19
Iteration:  3758
 O         0.697955         0.298349         0.673418
 C        -0.723076         0.666667         0.748553
 C        -1.247163         0.691178         2.231601
 C        -2.634588        -0.028644         1.656666
 C        -3.380018         0.701108         0.536542
 C        -2.757714         2.042906         0.238263
 C        -1.252570         1.888494         0.052033
 O        -2.781624        -0.185761        -0.473809
 C        -1.751214        -0.522464         0.501707
 H         0.832718        -0.434314        -0.065885
 H        -0.660876        -0.120867         2.765354
 H        -1.153469         1.558730         2.903830
 H        -3.189421        -0.592450         2.429188
 H        -4.439802         0.538059         0.494621
 H        -3.122135         2.618284        -0.674266
 H        -3.045402         2.782162         0.998737
 H        -1.186263         1.741400        -1.065001
 H        -0.658569         2.735242         0.484562
 H        -1.453870        -1.574976         0.391234
