19
Iteration:  4373
 O         0.579576         0.234786         0.534321
 C        -0.789832         0.684389         0.823897
 C        -1.427962         0.726524         2.309074
 C        -2.562401        -0.072176         1.678215
 C        -3.336237         0.678892         0.639192
 C        -2.681591         1.964172         0.276268
 C        -1.172408         1.840331        -0.071861
 O        -2.770862        -0.099962        -0.470015
 C        -1.684209        -0.503332         0.437881
 H         1.231579         0.840587         0.648299
 H        -0.787930         0.212460         3.062556
 H        -1.564834         1.707607         2.810246
 H        -3.195196        -0.904732         2.082763
 H        -4.438558         0.691417         0.708801
 H        -3.231670         2.537663        -0.453125
 H        -2.665178         2.779296         0.977152
 H        -0.974022         1.394786        -1.056590
 H        -0.526158         2.653781         0.006799
 H        -1.309625        -1.579323         0.506250
