19
Iteration:   984
 O         0.591384         0.183876         0.568801
 C        -0.695284         0.677763         0.767432
 C        -1.228728         0.659451         2.275360
 C        -2.578532        -0.001226         1.742997
 C        -3.259140         0.692728         0.571220
 C        -2.788572         2.064680         0.018353
 C        -1.228754         2.029218         0.162841
 O        -2.832992        -0.287378        -0.425556
 C        -1.764934        -0.522664         0.467014
 H         1.187850         0.883860         0.198153
 H        -0.749536        -0.004766         2.971760
 H        -1.280126         1.510133         2.911302
 H        -3.173467        -0.725640         2.303576
 H        -4.399043         0.692018         0.630400
 H        -3.233046         2.195120        -1.051052
 H        -3.315581         2.838144         0.791173
 H        -0.769794         2.180073        -0.782812
 H        -0.839933         2.821991         0.785260
 H        -1.409215        -1.624567         0.324405
