19
Iteration:  2394charge 0 multiplicity 1
 O         0.591634         0.412321         0.723415
 C        -0.774435         0.620527         0.735525
 C        -1.326180         0.722345         2.148838
 C        -2.503112        -0.111685         1.618185
 C        -3.304506         0.738647         0.724810
 C        -2.677560         2.074853         0.318570
 C        -1.246299         1.774438        -0.074718
 O        -2.817983        -0.185462        -0.449907
 C        -1.736255        -0.592792         0.413031
 H         0.973146         0.226323        -0.118173
 H        -0.722233         0.192957         2.948992
 H        -1.615851         1.710820         2.526191
 H        -3.158592        -0.747929         2.363038
 H        -4.387519         0.792986         0.688303
 H        -3.156864         2.508447        -0.574342
 H        -2.777232         2.706936         1.298685
 H        -1.038012         1.568892        -1.092379
 H        -0.646009         2.656669         0.081419
 H        -1.404149        -1.641620         0.334288
