19
Iteration:  3890
 O         0.537412         0.246206         0.435323
 C        -0.769918         0.597935         0.863865
 C        -1.329320         0.736584         2.284454
 C        -2.620874         0.051425         1.694519
 C        -3.360975         0.720439         0.497406
 C        -2.695293         2.104148         0.310952
 C        -1.183368         1.868756         0.103396
 O        -2.710428        -0.298676        -0.509755
 C        -1.721546        -0.534586         0.503198
 H         1.118881         0.811968         0.892195
 H        -0.720710         0.148708         3.024272
 H        -1.468147         1.757014         2.608100
 H        -3.162043        -0.634415         2.305470
 H        -4.384749         0.466137         0.505355
 H        -3.045498         2.599736        -0.675113
 H        -2.805038         2.621463         1.235379
 H        -1.036884         1.533473        -0.979390
 H        -0.630329         2.841438         0.300125
 H        -1.299484        -1.530830         0.311373
