19
Iteration:  2685charge 0 multiplicity 1
 O         0.635003         0.351342         0.630761
 C        -0.751343         0.626484         0.798643
 C        -1.245224         0.591219         2.247089
 C        -2.591737        -0.047782         1.685366
 C        -3.380999         0.783945         0.549802
 C        -2.717835         2.119217         0.254699
 C        -1.237180         1.797238        -0.110864
 O        -2.771045        -0.273734        -0.471995
 C        -1.788639        -0.508062         0.526271
 H         1.178111         1.236192         0.676074
 H        -0.699249        -0.209525         2.801529
 H        -1.016364         1.491821         2.898321
 H        -3.256436        -0.597146         2.360547
 H        -4.494487         0.674201         0.460146
 H        -3.369827         2.796838        -0.385020
 H        -2.757566         2.667548         1.227619
 H        -1.258213         1.424923        -1.144343
 H        -0.640189         2.760325         0.084165
 H        -1.329379        -1.521261         0.502752
