19
Iteration:   777charge 0 multiplicity 1
 O         0.699511         0.435075         0.827968
 C        -0.748573         0.540091         0.744968
 C        -1.360448         0.736244         2.128599
 C        -2.588346        -0.132846         1.744377
 C        -3.280812         0.732408         0.638963
 C        -2.623125         2.067541         0.260250
 C        -1.192312         1.794217        -0.093305
 O        -2.957931        -0.238709        -0.459489
 C        -1.786312        -0.564225         0.388947
 H         0.995451         1.075023         0.050505
 H        -0.586324         0.398289         2.874366
 H        -1.565234         1.809859         2.461743
 H        -3.081720        -0.789000         2.349438
 H        -4.396213         0.908179         0.684476
 H        -3.165486         2.446676        -0.492800
 H        -2.617187         2.806318         1.080175
 H        -1.158115         1.519602        -1.157297
 H        -0.318327         2.532630        -0.115181
 H        -1.393085        -1.618659         0.064397
