19
Iteration:  4369charge 0 multiplicity 1
 O         0.574086         0.247591         0.529045
 C        -0.747084         0.667208         0.793250
 C        -1.398822         0.745971         2.309387
 C        -2.596774        -0.097298         1.678669
 C        -3.369111         0.676425         0.657702
 C        -2.667562         1.973476         0.269276
 C        -1.175316         1.865076        -0.063334
 O        -2.779900        -0.115591        -0.470266
 C        -1.687084        -0.510706         0.448056
 H         1.334351         0.931136         0.801143
 H        -0.905072         0.079779         3.071851
 H        -1.620828         1.708248         2.786605
 H        -3.151793        -0.881585         2.148269
 H        -4.494237         0.682528         0.592399
 H        -3.129822         2.459603        -0.609734
 H        -2.568303         2.741381         1.136190
 H        -1.037165         1.403528        -1.087492
 H        -0.418283         2.741638         0.007535
 H        -1.393396        -1.503979         0.530050
