19
Iteration:  1240
 O         0.712787         0.466870         0.668355
 C        -0.751588         0.577326         0.797140
 C        -1.354793         0.574223         2.172922
 C        -2.607258        -0.084171         1.689875
 C        -3.357543         0.765728         0.557658
 C        -2.660701         2.116920         0.305976
 C        -1.170245         1.738805        -0.135062
 O        -2.863101        -0.182109        -0.438021
 C        -1.786421        -0.617580         0.478276
 H         1.008461         1.457357         0.724380
 H        -0.674189         0.028703         2.908590
 H        -1.291573         1.549291         2.819648
 H        -3.337238        -0.531352         2.290929
 H        -4.475794         0.783029         0.617986
 H        -3.154722         2.619129        -0.490394
 H        -2.716106         2.724332         1.206058
 H        -1.104323         1.476481        -1.237208
 H        -0.413147         2.489613         0.072861
 H        -1.549282        -1.693221         0.436499
