19
Iteration:  4336
 O         0.613166         0.320550         0.627425
 C        -0.745606         0.563288         0.714248
 C        -1.174802         0.675115         2.206352
 C        -2.554352         0.043248         1.625824
 C        -3.285417         0.740130         0.554255
 C        -2.734431         2.168472         0.201785
 C        -1.250414         1.915942         0.088815
 O        -2.867561        -0.303267        -0.452342
 C        -1.769731        -0.668564         0.472994
 H         0.974648         0.901103         1.227929
 H        -0.767689        -0.195156         2.770222
 H        -1.204818         1.663907         2.678775
 H        -3.220659        -0.421887         2.317803
 H        -4.410552         0.683073         0.551959
 H        -3.278068         2.697262        -0.594658
 H        -2.956772         2.503748         1.282797
 H        -1.064004         1.832568        -1.028537
 H        -0.620846         2.810764         0.535833
 H        -1.577993        -1.692064         0.514169
