19
Iteration:  2786
 O         0.662566         0.384667         0.614457
 C        -0.751554         0.578608         0.809443
 C        -1.213086         0.644925         2.212921
 C        -2.598721        -0.009997         1.720299
 C        -3.326810         0.720084         0.530777
 C        -2.720726         2.087088         0.268638
 C        -1.218383         1.838300        -0.032756
 O        -2.861402        -0.191014        -0.493152
 C        -1.784388        -0.655674         0.508402
 H         1.101511         1.131670         0.955147
 H        -0.758498        -0.266222         2.742731
 H        -1.149559         1.682774         2.728686
 H        -3.154701        -0.669996         2.307873
 H        -4.451275         0.841575         0.510740
 H        -3.301525         2.654850        -0.559250
 H        -3.021905         2.687513         1.173376
 H        -1.092036         1.497454        -1.104476
 H        -0.623290         2.849021         0.284729
 H        -1.378706        -1.632990         0.241821
