19
Iteration:   435charge 0 multiplicity 1
 O         0.572306         0.262127         0.617023
 C        -0.760004         0.746762         0.788587
 C        -1.314995         0.738585         2.243631
 C        -2.584287        -0.037374         1.674917
 C        -3.341425         0.674900         0.501169
 C        -2.662610         2.015685         0.152467
 C        -1.127726         2.018052         0.132543
 O        -2.831397        -0.384284        -0.411034
 C        -1.736937        -0.473343         0.479014
 H         0.497164        -0.329990        -0.240299
 H        -0.665554         0.146215         2.951214
 H        -1.350509         1.638811         2.919541
 H        -3.225983        -0.723697         2.144202
 H        -4.445828         0.757125         0.669512
 H        -2.867521         2.440436        -0.834459
 H        -3.180680         2.790253         0.827547
 H        -0.896555         1.959579        -0.865360
 H        -0.600457         2.882660         0.551707
 H        -1.158638        -1.491683         0.354493
