19
Iteration:  2829
 O         0.568807         0.272521         0.549253
 C        -0.707193         0.692717         0.841489
 C        -1.347885         0.689975         2.256138
 C        -2.561491        -0.107648         1.649313
 C        -3.324069         0.714315         0.530468
 C        -2.682699         2.036191         0.322749
 C        -1.218567         1.868706        -0.037958
 O        -2.791751        -0.211001        -0.436904
 C        -1.753293        -0.538552         0.434836
 H         1.182343         1.010991         0.863867
 H        -0.685354         0.198897         3.001770
 H        -1.427667         1.698987         2.725625
 H        -3.222359        -0.603482         2.268022
 H        -4.433116         0.825442         0.570145
 H        -3.315959         2.648587        -0.396897
 H        -2.734867         2.641393         1.205936
 H        -1.235657         1.447359        -1.066909
 H        -0.448967         2.733857         0.121556
 H        -1.345811        -1.544653         0.376969
