19
Iteration:  3776charge 0 multiplicity 1
 O         0.645497         0.382836         0.666358
 C        -0.738383         0.563114         0.806444
 C        -1.302434         0.680077         2.224898
 C        -2.551913         0.060316         1.729333
 C        -3.334808         0.706651         0.469463
 C        -2.762805         2.089251         0.376509
 C        -1.172307         1.837171        -0.041103
 O        -2.760532        -0.250769        -0.566986
 C        -1.837521        -0.560181         0.512840
 H         0.762578        -0.083897        -0.284931
 H        -0.901475         0.070375         2.993448
 H        -1.363677         1.700873         2.621679
 H        -3.124877        -0.693588         2.375556
 H        -4.498320         0.761922         0.503245
 H        -3.304480         2.699680        -0.324356
 H        -2.655351         2.526903         1.390716
 H        -1.041023         1.493917        -1.065142
 H        -0.685587         2.741933         0.322758
 H        -1.317214        -1.527166         0.373761
