19
Iteration:  3475
 O         0.572630         0.342884         0.536273
 C        -0.782969         0.695283         0.776263
 C        -1.361372         0.586050         2.294658
 C        -2.590936        -0.133211         1.730380
 C        -3.270871         0.753083         0.559743
 C        -2.630714         2.154875         0.216905
 C        -1.224037         1.838436        -0.000021
 O        -2.831161        -0.223674        -0.436511
 C        -1.717560        -0.582207         0.497679
 H         1.151371         1.068840         0.446769
 H        -0.763655        -0.076271         2.960696
 H        -1.395953         1.609272         2.685371
 H        -3.281195        -0.807092         2.232217
 H        -4.353959         0.717466         0.797062
 H        -3.107887         2.450085        -0.769303
 H        -2.979934         3.011205         0.766395
 H        -0.679043         1.571882        -0.931193
 H        -0.639136         2.685531         0.400630
 H        -1.252572        -1.572180         0.344992
