19
Iteration:   143
 O         0.637352         0.323494         0.603758
 C        -0.758368         0.574001         0.766707
 C        -1.297373         0.639501         2.235092
 C        -2.581738         0.060650         1.723376
 C        -3.320866         0.721957         0.475274
 C        -2.729176         2.123436         0.186408
 C        -1.199904         1.886246         0.096034
 O        -2.786919        -0.297746        -0.467801
 C        -1.798104        -0.595424         0.533917
 H         0.923995         0.894383        -0.179067
 H        -0.713362        -0.086772         2.895812
 H        -1.350874         1.605646         2.791303
 H        -3.248957        -0.355489         2.462340
 H        -4.410987         0.641793         0.544707
 H        -3.160740         2.532947        -0.680611
 H        -2.977670         2.826373         1.064553
 H        -0.933571         1.866183        -0.931524
 H        -0.621175         2.650062         0.549160
 H        -1.262403        -1.601289         0.543057
