19
Iteration:  2581charge 0 multiplicity 1
 O         0.623360         0.408956         0.497796
 C        -0.764666         0.604937         0.829425
 C        -1.314287         0.628683         2.304362
 C        -2.618326         0.025487         1.718834
 C        -3.319599         0.767444         0.537551
 C        -2.701759         2.091682         0.192114
 C        -1.216276         1.823241         0.074908
 O        -2.723424        -0.250976        -0.412159
 C        -1.774826        -0.607860         0.513468
 H         0.626752         0.399662        -0.409279
 H        -0.837078        -0.154410         2.895029
 H        -1.326407         1.587339         2.795897
 H        -3.301719        -0.633039         2.406923
 H        -4.393760         0.632819         0.510175
 H        -3.172749         2.317619        -0.735699
 H        -2.911446         2.701944         1.067113
 H        -0.930421         1.663268        -0.984414
 H        -0.631497         2.832034         0.296218
 H        -1.374719        -1.557781         0.183169
