19
Iteration:  1102charge 0 multiplicity 1
 O         0.557778         0.288689         0.680881
 C        -0.764697         0.651835         0.752005
 C        -1.309632         0.714474         2.172197
 C        -2.492596        -0.135555         1.720183
 C        -3.281174         0.721224         0.638747
 C        -2.715192         2.098876         0.194934
 C        -1.199694         1.860264        -0.077611
 O        -2.873358        -0.220796        -0.439589
 C        -1.716058        -0.546281         0.471058
 H         1.146341         0.877394         1.046839
 H        -0.751909         0.271709         2.963397
 H        -1.534004         1.622737         2.683753
 H        -3.159273        -0.923402         2.334078
 H        -4.375268         0.793714         0.743134
 H        -3.191872         2.456038        -0.748810
 H        -2.905558         2.762540         0.953431
 H        -1.100660         1.695042        -1.180365
 H        -0.555868         2.739660         0.127124
 H        -1.152999        -1.448027         0.196453
