19
Iteration:   472charge 0 multiplicity 1
 O         0.700776         0.420608         0.783736
 C        -0.704624         0.525263         0.766505
 C        -1.281247         0.708275         2.184316
 C        -2.626661        -0.019496         1.718078
 C        -3.381426         0.721154         0.570781
 C        -2.704116         2.081984         0.268035
 C        -1.281849         1.756288        -0.067389
 O        -2.729301        -0.119665        -0.499814
 C        -1.840819        -0.661858         0.499474
 H         1.187875         0.796075        -0.080165
 H        -0.565934         0.052513         2.690302
 H        -1.345913         1.762594         2.473520
 H        -3.249516        -0.576081         2.477905
 H        -4.434586         0.652206         0.447862
 H        -3.153058         2.456689        -0.642462
 H        -2.840931         2.765080         1.092893
 H        -1.436343         1.376319        -1.135784
 H        -0.557012         2.653366        -0.101758
 H        -1.670480        -1.773179         0.406352
