19
Iteration:  1042
 O         0.606660         0.328300         0.550601
 C        -0.702927         0.648570         0.740201
 C        -1.245054         0.687654         2.317989
 C        -2.594789         0.007209         1.731910
 C        -3.323900         0.745810         0.477221
 C        -2.738087         2.115621         0.218852
 C        -1.187867         1.892712         0.002101
 O        -2.777261        -0.354858        -0.452431
 C        -1.836334        -0.600855         0.542740
 H         1.219638         1.092182         0.604500
 H        -0.891858        -0.231290         2.783565
 H        -1.439916         1.608331         2.886025
 H        -3.190438        -0.549075         2.354778
 H        -4.402145         0.675217         0.515816
 H        -3.174497         2.680995        -0.599871
 H        -3.100801         2.672596         1.267223
 H        -1.102909         1.716056        -1.075500
 H        -0.563500         2.735138         0.360549
 H        -1.449536        -1.625061         0.393195
