19
Iteration:  4987
 O         0.621910         0.284018         0.621884
 C        -0.785313         0.622799         0.869229
 C        -1.213405         0.628711         2.253863
 C        -2.568834         0.064919         1.688342
 C        -3.386174         0.690460         0.407380
 C        -2.776121         2.147254         0.333326
 C        -1.189886         1.874025         0.125460
 O        -2.706774        -0.222529        -0.557916
 C        -1.815638        -0.590927         0.509973
 H         0.737308         0.210873        -0.411851
 H        -0.617608        -0.052528         2.853706
 H        -1.216390         1.643881         2.787327
 H        -3.307421        -0.548415         2.276350
 H        -4.476101         0.492107         0.267913
 H        -3.175887         2.689146        -0.568159
 H        -3.016425         2.695479         1.275194
 H        -1.023810         1.718333        -0.935676
 H        -0.683912         2.824140         0.311389
 H        -1.408626        -1.586764         0.311409
