19
Iteration:   545
 O         0.614107         0.247304         0.681312
 C        -0.729910         0.572795         0.781567
 C        -1.230026         0.753198         2.221955
 C        -2.507277         0.044555         1.701730
 C        -3.363188         0.729074         0.557361
 C        -2.777001         2.005821         0.101130
 C        -1.285570         1.883330         0.126832
 O        -2.783244        -0.187181        -0.484162
 C        -1.773280        -0.543944         0.493302
 H         1.010179        -0.077405        -0.198103
 H        -0.804229         0.051568         3.063846
 H        -1.209244         1.821867         2.631107
 H        -2.937875        -0.673417         2.318249
 H        -4.496707         0.669809         0.529235
 H        -3.105495         2.157930        -0.917802
 H        -3.170528         3.008297         0.674654
 H        -0.807182         2.027028        -0.870893
 H        -0.836833         2.683335         0.761369
 H        -1.316883        -1.651464         0.489137
