19
Iteration:  2291
 O         0.614003         0.290468         0.682399
 C        -0.737258         0.691985         0.727658
 C        -1.178835         0.652704         2.247425
 C        -2.520261        -0.029851         1.713783
 C        -3.430018         0.698476         0.564698
 C        -2.731740         2.035141         0.211068
 C        -1.188389         2.010133         0.076053
 O        -2.885571        -0.329389        -0.429980
 C        -1.749760        -0.527653         0.452406
 H         0.923742         0.101085        -0.289950
 H        -0.574633        -0.083924         2.694618
 H        -1.265802         1.627600         2.737710
 H        -3.140479        -0.655090         2.252659
 H        -4.504130         0.652814         0.509331
 H        -2.989998         2.479411        -0.866710
 H        -3.120890         2.903122         0.822052
 H        -0.971471         1.932802        -1.027410
 H        -0.754144         3.029796         0.503910
 H        -1.200081        -1.423963         0.157492
