19
Iteration:  1649charge 0 multiplicity 1
 O         0.567050         0.238129         0.710150
 C        -0.772664         0.667588         0.788322
 C        -1.356924         0.729463         2.249926
 C        -2.425437        -0.131684         1.600430
 C        -3.335182         0.747657         0.593659
 C        -2.698621         2.041835         0.331386
 C        -1.185472         1.833969        -0.125279
 O        -2.862120        -0.181805        -0.438941
 C        -1.740583        -0.515732         0.376593
 H         1.149504         0.929341         0.801200
 H        -0.820791         0.128705         3.015137
 H        -1.751117         1.774700         2.845504
 H        -3.013541        -0.872183         2.201720
 H        -4.421541         0.863296         0.560830
 H        -3.293319         2.622852        -0.365190
 H        -2.591589         2.659402         1.267623
 H        -0.996042         1.494975        -1.129838
 H        -0.524746         2.741700        -0.000979
 H        -1.216368        -1.410163         0.121155
