19
Iteration:   189
 O         0.657607         0.432302         0.888238
 C        -0.752806         0.668352         0.743704
 C        -1.348160         0.686678         2.252206
 C        -2.486051        -0.168683         1.649589
 C        -3.280803         0.777899         0.637795
 C        -2.691050         2.179567         0.312152
 C        -1.225221         1.757021        -0.273135
 O        -2.894297        -0.198322        -0.437243
 C        -1.728959        -0.616641         0.365479
 H         0.896483        -0.283647         0.293720
 H        -0.835732         0.047500         2.949374
 H        -1.578216         1.629541         2.747345
 H        -3.129766        -0.895841         2.211878
 H        -4.428743         0.839808         0.829746
 H        -3.295334         2.676014        -0.530960
 H        -2.684255         2.818753         1.176906
 H        -1.389086         1.300196        -1.296853
 H        -0.601080         2.601162        -0.414005
 H        -1.382361        -1.561483         0.012487
