19
Iteration:  3070charge 0 multiplicity 1
 O         0.557335         0.171550         0.648669
 C        -0.791512         0.700595         0.761390
 C        -1.418416         0.800864         2.250770
 C        -2.494864        -0.127026         1.690445
 C        -3.292767         0.700516         0.612283
 C        -2.671429         2.086550         0.312052
 C        -1.116062         1.909650        -0.063347
 O        -2.851151        -0.266938        -0.466707
 C        -1.708516        -0.537184         0.401450
 H         1.142985         1.019612         0.754415
 H        -0.724740         0.088601         2.728533
 H        -1.702793         1.800743         2.613006
 H        -3.115480        -0.839184         2.276841
 H        -4.423349         0.800324         0.453283
 H        -3.224548         2.710055        -0.468342
 H        -2.817833         2.663839         1.226416
 H        -1.094701         1.792705        -1.155075
 H        -0.718376         2.824208         0.259542
 H        -1.074664        -1.437034         0.257718
