19
Iteration:  2156charge 0 multiplicity 1
 O         0.595995         0.306503         0.327187
 C        -0.744968         0.583668         0.806954
 C        -1.333427         0.689842         2.320096
 C        -2.578342        -0.040329         1.755427
 C        -3.373937         0.676020         0.527937
 C        -2.753113         2.089517         0.108103
 C        -1.164731         1.883638         0.141612
 O        -2.761789        -0.190303        -0.394301
 C        -1.738842        -0.574442         0.630097
 H         1.278233         1.081226         0.555551
 H        -0.928227        -0.026882         3.110368
 H        -1.516151         1.686680         2.667082
 H        -3.248352        -0.713914         2.400247
 H        -4.513563         0.643784         0.490054
 H        -2.926834         2.250203        -0.984701
 H        -3.068020         2.915026         0.749937
 H        -0.736903         1.926799        -0.961124
 H        -0.493835         2.601700         0.628153
 H        -1.322701        -1.605705         0.369509
