19
Iteration:  2680
 O         0.610040         0.361174         0.649368
 C        -0.738467         0.641563         0.826021
 C        -1.230345         0.593942         2.224754
 C        -2.589259        -0.038905         1.669097
 C        -3.376307         0.733378         0.594937
 C        -2.684273         2.153488         0.252200
 C        -1.275648         1.787106        -0.134130
 O        -2.802689        -0.242801        -0.478960
 C        -1.756553        -0.542695         0.537980
 H         1.015703         1.183961         0.663799
 H        -0.673923        -0.179782         2.747326
 H        -1.133110         1.469650         2.846166
 H        -3.332710        -0.747306         2.198022
 H        -4.458651         0.776251         0.506508
 H        -3.218364         2.675282        -0.526316
 H        -2.693190         2.611117         1.248163
 H        -1.126807         1.493482        -1.196434
 H        -0.594974         2.720438         0.026330
 H        -1.269071        -1.516570         0.546841
