19
Iteration:  3579
 O         0.633346         0.281499         0.493493
 C        -0.696595         0.591114         0.804515
 C        -1.309882         0.644093         2.284067
 C        -2.578791        -0.012940         1.760307
 C        -3.325497         0.802251         0.571797
 C        -2.769098         2.154195         0.141669
 C        -1.230998         1.868926         0.092346
 O        -2.803528        -0.286351        -0.504646
 C        -1.764339        -0.584994         0.516951
 H         1.199848         1.168433         0.663291
 H        -0.842125        -0.140277         2.833272
 H        -1.329726         1.482390         2.996036
 H        -3.292276        -0.496544         2.524544
 H        -4.420018         0.675395         0.405281
 H        -3.299255         2.266182        -0.760401
 H        -2.967477         2.847142         0.969639
 H        -0.659866         1.849988        -0.830133
 H        -0.618816         2.748638         0.434997
 H        -1.321875        -1.564749         0.313188
