19
Iteration:  2341
 O         0.638021         0.390716         0.584762
 C        -0.791414         0.576282         0.779830
 C        -1.270904         0.660812         2.211947
 C        -2.549445        -0.045429         1.732428
 C        -3.315218         0.704208         0.553347
 C        -2.742635         2.131491         0.249645
 C        -1.165621         1.874082         0.054004
 O        -2.822216        -0.268178        -0.462489
 C        -1.806444        -0.564691         0.525806
 H         0.869323         0.848281        -0.252419
 H        -0.758397        -0.160507         2.796501
 H        -1.296001         1.662121         2.674403
 H        -3.153427        -0.768054         2.450109
 H        -4.437038         0.621791         0.438317
 H        -3.087613         2.384183        -0.721679
 H        -3.084753         2.910581         0.978844
 H        -0.861360         1.694869        -0.991020
 H        -0.571787         2.699823         0.328363
 H        -1.347530        -1.578475         0.500714
