19
Iteration:  4699charge 0 multiplicity 1
 O         0.684129         0.366436         0.644052
 C        -0.725477         0.621037         0.817292
 C        -1.336260         0.625945         2.221644
 C        -2.634384        -0.040376         1.730312
 C        -3.362321         0.652682         0.541381
 C        -2.658783         2.021489         0.231594
 C        -1.043374         1.941580         0.122223
 O        -2.959848        -0.270593        -0.528860
 C        -1.819288        -0.494067         0.445542
 H         1.054609         0.574487        -0.270609
 H        -0.783554        -0.016074         3.004183
 H        -1.408161         1.678150         2.622464
 H        -3.039621        -0.902694         2.315130
 H        -4.446209         0.852529         0.412783
 H        -2.950571         2.397244        -0.774289
 H        -2.752620         2.939432         0.886047
 H        -0.747802         1.928118        -0.851211
 H        -0.590640         2.834460         0.622708
 H        -1.347546        -1.446428         0.311797
