19
Iteration:   729charge 0 multiplicity 1
 O         0.641309         0.265722         0.630548
 C        -0.760407         0.619427         0.739208
 C        -1.202372         0.692454         2.242560
 C        -2.588903         0.069457         1.713340
 C        -3.369913         0.720242         0.457036
 C        -2.844268         2.092099         0.209696
 C        -1.251106         1.898996         0.075248
 O        -2.725455        -0.276526        -0.453445
 C        -1.742828        -0.503868         0.589159
 H         0.783280        -0.444513        -0.055079
 H        -0.791657        -0.131204         2.837299
 H        -1.113830         1.570947         2.843633
 H        -3.301467        -0.468247         2.379731
 H        -4.479832         0.404284         0.458831
 H        -3.146154         2.420209        -0.892782
 H        -3.221711         2.857296         0.892084
 H        -0.861622         1.883273        -1.019729
 H        -0.563377         2.754980         0.442398
 H        -1.212853        -1.419291         0.407744
