19
Iteration:  4414
 O         0.666604         0.286592         0.688916
 C        -0.723971         0.614127         0.751237
 C        -1.269529         0.652797         2.140847
 C        -2.595768         0.030766         1.642653
 C        -3.310659         0.715761         0.498573
 C        -2.764263         2.101605         0.295097
 C        -1.181430         1.893418         0.021440
 O        -2.829563        -0.277009        -0.471225
 C        -1.836779        -0.575161         0.548988
 H         1.102765         1.076559         0.149579
 H        -0.658317        -0.184459         2.651497
 H        -1.233992         1.608839         2.744023
 H        -3.203680        -0.545668         2.337614
 H        -4.438048         0.647843         0.592965
 H        -3.231765         2.544289        -0.593517
 H        -2.931147         2.607703         1.314375
 H        -0.884845         1.970533        -1.091366
 H        -0.686566         2.786337         0.600735
 H        -1.414891        -1.554982         0.462221
