19
Iteration:  1998charge 0 multiplicity 1
 O         0.636346         0.314487         0.566813
 C        -0.740999         0.671561         0.797839
 C        -1.379176         0.783252         2.262727
 C        -2.558665        -0.087472         1.749388
 C        -3.289420         0.678414         0.577563
 C        -2.676772         2.045543         0.218697
 C        -1.169541         1.957686         0.037307
 O        -2.794204        -0.236846        -0.473454
 C        -1.790944        -0.636106         0.470905
 H         0.593813        -0.175291        -0.191374
 H        -0.797420         0.225485         2.949159
 H        -1.513726         1.756381         2.757026
 H        -3.265292        -0.707785         2.324825
 H        -4.385886         0.647130         0.620453
 H        -3.134966         2.456535        -0.595733
 H        -2.945464         2.718841         1.043056
 H        -0.948995         1.901612        -1.008789
 H        -0.712122         2.924449         0.424370
 H        -1.467513        -1.627188         0.249685
