19
Iteration:  1118charge 0 multiplicity 1
 O         0.650405         0.307918         0.558445
 C        -0.757035         0.676385         0.780213
 C        -1.306684         0.653341         2.280615
 C        -2.554207         0.018345         1.657280
 C        -3.348580         0.716733         0.534805
 C        -2.691001         2.028036         0.180533
 C        -1.175489         1.910839         0.006427
 O        -2.863537        -0.321728        -0.394816
 C        -1.781253        -0.532067         0.475794
 H         1.158046         1.003783         1.068242
 H        -0.708348        -0.193220         2.785171
 H        -1.224287         1.626317         2.887759
 H        -3.116752        -0.517932         2.312154
 H        -4.466162         0.685737         0.657781
 H        -3.222711         2.426763        -0.668963
 H        -3.028060         2.876841         0.936236
 H        -0.817672         1.755426        -0.998345
 H        -0.744035         2.819586         0.438412
 H        -1.426151        -1.611361         0.407244
