19
Iteration:  4287
 O         0.536825         0.255465         0.462778
 C        -0.802020         0.662775         0.839892
 C        -1.382611         0.631826         2.370485
 C        -2.466450        -0.055472         1.690481
 C        -3.288921         0.771184         0.617618
 C        -2.712549         2.102566         0.215793
 C        -1.195487         1.865659        -0.004797
 O        -2.782167        -0.204644        -0.466700
 C        -1.706068        -0.543495         0.480070
 H         1.377266         0.877991         0.759298
 H        -0.789289         0.063607         3.094515
 H        -1.708987         1.666546         2.605422
 H        -3.181828        -0.762446         2.207078
 H        -4.356693         0.628209         0.506608
 H        -3.240301         2.190950        -0.838012
 H        -3.069524         2.928228         0.872662
 H        -0.920662         1.631589        -1.026490
 H        -0.596826         2.705383         0.426977
 H        -1.314666        -1.648265         0.375393
