19
Iteration:  2006
 O         0.608179         0.346931         0.550951
 C        -0.751448         0.564005         0.714483
 C        -1.339705         0.710095         2.294900
 C        -2.559744         0.005394         1.702941
 C        -3.294252         0.687892         0.490518
 C        -2.730503         2.038707         0.243274
 C        -1.164529         1.953291         0.056854
 O        -2.762581        -0.248548        -0.421561
 C        -1.795535        -0.587313         0.547623
 H         0.748756        -0.161487        -0.224951
 H        -0.879533         0.081824         3.100354
 H        -1.583327         1.811863         2.658961
 H        -3.001636        -0.683296         2.365612
 H        -4.376261         0.724997         0.463130
 H        -3.227042         2.530133        -0.673528
 H        -3.069186         2.748738         1.031307
 H        -0.886210         2.095293        -0.974541
 H        -0.595995         2.718259         0.635865
 H        -1.402125        -1.589129         0.379182
