19
Iteration:  2761charge 0 multiplicity 1
 O         0.597425         0.211606         0.604562
 C        -0.727453         0.685428         0.791163
 C        -1.274302         0.630312         2.235821
 C        -2.517367        -0.017004         1.664859
 C        -3.346082         0.757605         0.639708
 C        -2.761122         2.049545         0.185839
 C        -1.187391         1.964250         0.017813
 O        -2.812270        -0.286177        -0.447846
 C        -1.766922        -0.502179         0.451050
 H         1.243921         0.865983         0.734219
 H        -0.663869        -0.103710         2.789413
 H        -1.509699         1.545143         2.789316
 H        -3.064307        -0.869991         2.115860
 H        -4.474122         0.755221         0.643864
 H        -3.318265         2.437345        -0.675982
 H        -3.149298         2.788276         0.873669
 H        -0.996592         1.794112        -1.051027
 H        -0.788355         2.949951         0.550323
 H        -1.248859        -1.473961         0.324663
