19
Iteration:  4485charge 0 multiplicity 1
 O         0.612024         0.232282         0.759779
 C        -0.730519         0.694394         0.756361
 C        -1.243836         0.682770         2.184227
 C        -2.544491        -0.077831         1.691591
 C        -3.373820         0.670651         0.548847
 C        -2.798532         2.097270         0.275206
 C        -1.212706         1.877327         0.003442
 O        -2.768028        -0.135416        -0.514276
 C        -1.740268        -0.500591         0.464218
 H         0.904984        -0.191655        -0.182385
 H        -0.663595        -0.028675         2.865710
 H        -1.246075         1.691929         2.805649
 H        -3.247434        -0.681355         2.344288
 H        -4.458554         0.720829         0.515317
 H        -3.412849         2.442052        -0.626566
 H        -2.982889         2.647184         1.183828
 H        -1.080228         1.676059        -1.081910
 H        -0.619984         2.756151         0.178017
 H        -1.339772        -1.588216         0.426110
