19
Iteration:  1204
 O         0.628219         0.237261         0.740191
 C        -0.753356         0.652887         0.754449
 C        -1.341745         0.723314         2.235068
 C        -2.534305        -0.017848         1.655762
 C        -3.321124         0.685765         0.585022
 C        -2.748451         2.097025         0.332264
 C        -1.202104         1.844265        -0.101336
 O        -2.888176        -0.236887        -0.484311
 C        -1.664244        -0.532290         0.416179
 H         1.291689         0.990953         0.483048
 H        -0.607277         0.099527         2.735770
 H        -1.503769         1.739040         2.468766
 H        -3.076218        -0.625976         2.408102
 H        -4.451398         0.770947         0.712288
 H        -3.361245         2.567316        -0.492174
 H        -2.774961         2.653290         1.179091
 H        -1.077194         1.575464        -1.104285
 H        -0.565983         2.743602         0.116488
 H        -1.309430        -1.646983         0.310159
