19
Iteration:  4629
 O         0.695401         0.279896         0.664984
 C        -0.752776         0.618115         0.856626
 C        -1.422375         0.680602         2.260871
 C        -2.571701        -0.103138         1.637710
 C        -3.346843         0.696240         0.550079
 C        -2.672349         2.156766         0.324171
 C        -1.212936         1.864544        -0.061764
 O        -2.803142        -0.217240        -0.517377
 C        -1.721746        -0.493040         0.457844
 H         1.004648         0.221515        -0.339570
 H        -1.057328         0.064362         3.082172
 H        -1.557351         1.714136         2.682146
 H        -3.189596        -0.591750         2.369566
 H        -4.416558         0.629247         0.719611
 H        -3.238112         2.778521        -0.391039
 H        -2.718373         2.613629         1.284019
 H        -1.238952         1.703122        -1.123306
 H        -0.502734         2.664863         0.155908
 H        -1.324225        -1.525527         0.331279
