19
Iteration:  4852charge 0 multiplicity 1
 O         0.620034         0.301531         0.543861
 C        -0.732789         0.603811         0.787822
 C        -1.383532         0.645642         2.315573
 C        -2.640027        -0.042790         1.729613
 C        -3.302940         0.683943         0.489868
 C        -2.710423         2.103838         0.271350
 C        -1.170254         1.933304         0.053067
 O        -2.714153        -0.190308        -0.480555
 C        -1.796246        -0.591581         0.531452
 H         0.963295         0.299774        -0.442275
 H        -0.758759         0.027543         3.055440
 H        -1.668320         1.594993         2.826103
 H        -3.411915        -0.708468         2.081834
 H        -4.374125         0.883451         0.415821
 H        -3.181545         2.582000        -0.585955
 H        -3.030719         2.665957         1.192582
 H        -0.884350         1.859637        -1.079608
 H        -0.420920         2.782372         0.439968
 H        -1.264581        -1.486033         0.379387
