19
Iteration:  2687charge 0 multiplicity 1
 O         0.652246         0.353100         0.620750
 C        -0.757576         0.622553         0.780141
 C        -1.254755         0.595043         2.262339
 C        -2.597983        -0.044030         1.703237
 C        -3.378186         0.801533         0.520831
 C        -2.739904         2.101909         0.262314
 C        -1.216273         1.812424        -0.093397
 O        -2.758401        -0.284349        -0.466395
 C        -1.800779        -0.504512         0.514915
 H         1.167901         1.131564         0.673759
 H        -0.716738        -0.248173         2.806467
 H        -1.024482         1.507422         2.903875
 H        -3.159510        -0.514913         2.404033
 H        -4.464964         0.639973         0.468123
 H        -3.382676         2.811965        -0.323629
 H        -2.776459         2.700235         1.198246
 H        -1.291067         1.411901        -1.101963
 H        -0.711483         2.666403         0.066806
 H        -1.371269        -1.511906         0.463555
