19
Iteration:   122charge 0 multiplicity 1
 O         0.528862         0.179976         0.390680
 C        -0.726207         0.632118         0.867468
 C        -1.284464         0.665239         2.377297
 C        -2.592660        -0.011345         1.705597
 C        -3.319814         0.750056         0.434938
 C        -2.766135         2.085808         0.085025
 C        -1.215080         2.018708         0.166560
 O        -2.709569        -0.295415        -0.431623
 C        -1.760433        -0.547586         0.623520
 H         1.181754         0.973189         0.218131
 H        -0.795508        -0.139544         2.950207
 H        -1.296318         1.646915         2.859974
 H        -3.223060        -0.661856         2.303261
 H        -4.429568         0.636125         0.403645
 H        -3.089861         2.363239        -0.905607
 H        -3.196542         2.843411         0.711362
 H        -0.671771         2.097083        -0.787301
 H        -0.737094         2.801485         0.695585
 H        -1.250561        -1.521337         0.515739
