19
Iteration:  3590charge 0 multiplicity 1
 O         0.697594         0.259634         0.552223
 C        -0.796717         0.590626         0.783436
 C        -1.224711         0.628026         2.217524
 C        -2.606373         0.000263         1.742835
 C        -3.344999         0.717264         0.507594
 C        -2.798487         2.078240         0.161580
 C        -1.160065         1.949851         0.079509
 O        -2.804668        -0.243734        -0.460720
 C        -1.809852        -0.563672         0.519011
 H         1.258115         1.092060         0.789520
 H        -0.675904        -0.123652         2.730151
 H        -1.133414         1.618793         2.700699
 H        -3.291330        -0.554819         2.484434
 H        -4.431382         0.823557         0.709123
 H        -3.184167         2.479928        -0.763401
 H        -3.159858         2.874584         0.841693
 H        -0.959253         1.899583        -0.981950
 H        -0.792307         2.706192         0.787418
 H        -1.397338        -1.569667         0.531056
