19
Iteration:  1658
 O         0.569497         0.261713         0.696263
 C        -0.746008         0.697971         0.758803
 C        -1.430503         0.710181         2.208204
 C        -2.534038        -0.127566         1.664500
 C        -3.269585         0.682177         0.600768
 C        -2.621788         2.125606         0.351925
 C        -1.180362         1.800105        -0.110979
 O        -2.871628        -0.213644        -0.455880
 C        -1.713559        -0.498110         0.374156
 H         1.109417         0.940933         0.973520
 H        -0.556223         0.315041         2.750649
 H        -1.784820         1.805797         2.666396
 H        -3.102474        -0.958818         2.177479
 H        -4.369533         0.682161         0.792606
 H        -3.232314         2.796920        -0.209995
 H        -2.660162         2.631455         1.330299
 H        -1.134939         1.541650        -1.154075
 H        -0.536428         2.628670        -0.074633
 H        -1.326900        -1.525915         0.168847
