19
Iteration:  4476
 O         0.589451         0.291954         0.733375
 C        -0.751619         0.624695         0.803259
 C        -1.250238         0.650285         2.227560
 C        -2.565697        -0.085431         1.727236
 C        -3.315188         0.688797         0.562631
 C        -2.794178         2.088454         0.258351
 C        -1.154140         1.892340        -0.092756
 O        -2.741963        -0.124200        -0.457634
 C        -1.789582        -0.517301         0.452133
 H         0.666875        -0.112204        -0.250254
 H        -0.736177        -0.166555         2.740096
 H        -1.405404         1.626747         2.741452
 H        -3.283528        -0.720048         2.270734
 H        -4.388136         0.529418         0.580155
 H        -3.403362         2.392758        -0.668972
 H        -3.062409         2.886250         0.957271
 H        -1.001792         1.860615        -1.133936
 H        -0.636141         2.682235         0.393060
 H        -1.232116        -1.442919         0.145432
