19
Iteration:  4708charge 0 multiplicity 1
 O         0.613696         0.276155         0.653540
 C        -0.705228         0.636752         0.830729
 C        -1.306049         0.691350         2.233943
 C        -2.587609        -0.040275         1.712290
 C        -3.394298         0.710475         0.535607
 C        -2.665098         2.058396         0.196689
 C        -1.093266         1.896770         0.130685
 O        -2.877878        -0.286100        -0.545229
 C        -1.746423        -0.469211         0.427699
 H         0.715838         0.647941        -0.294498
 H        -0.606838         0.068925         2.919392
 H        -1.679655         1.603585         2.797386
 H        -3.078819        -0.801040         2.417460
 H        -4.496418         0.745527         0.741963
 H        -3.095093         2.433747        -0.766580
 H        -3.009706         2.663893         1.092598
 H        -0.870977         2.118618        -0.969190
 H        -0.546387         2.653367         0.800722
 H        -1.503307        -1.474624         0.153577
