19
Iteration:  4370charge 0 multiplicity 1
 O         0.575462         0.244997         0.529882
 C        -0.759474         0.671367         0.800192
 C        -1.406812         0.742944         2.309091
 C        -2.589920        -0.091157         1.678394
 C        -3.361319         0.676092         0.655732
 C        -2.671557         1.966218         0.269432
 C        -1.175118         1.862264        -0.064216
 O        -2.777598        -0.109822        -0.469744
 C        -1.682965        -0.511066         0.443231
 H         1.313107         0.901825         0.761630
 H        -0.872749         0.107381         3.083384
 H        -1.604950         1.707230         2.797689
 H        -3.162351        -0.884944         2.119797
 H        -4.494535         0.683310         0.619543
 H        -3.144905         2.478587        -0.563441
 H        -2.578264         2.759642         1.098823
 H        -1.017507         1.389567        -1.087565
 H        -0.431892         2.718252         0.001403
 H        -1.384400        -1.507401         0.537707
