19
Iteration:  2863charge 0 multiplicity 1
 O         0.593389         0.143124         0.645706
 C        -0.742048         0.673278         0.737369
 C        -1.214914         0.691646         2.193234
 C        -2.522322        -0.069919         1.690894
 C        -3.342944         0.692139         0.554171
 C        -2.826231         2.079607         0.215230
 C        -1.243851         1.985327         0.074002
 O        -2.761979        -0.191394        -0.403057
 C        -1.749380        -0.562956         0.448967
 H         1.327307         0.891792         0.559758
 H        -0.671042        -0.126749         2.734350
 H        -1.338618         1.721017         2.488706
 H        -3.264731        -0.515176         2.250161
 H        -4.463101         0.764230         0.521414
 H        -3.263237         2.341567        -0.806234
 H        -3.219321         2.742306         0.985542
 H        -0.804794         2.033424        -0.960282
 H        -0.782595         2.969523         0.546241
 H        -1.496049        -1.611638         0.273178
