19
Iteration:  4262
 O         0.582009         0.223523         0.604632
 C        -0.819099         0.655161         0.802274
 C        -1.300892         0.713696         2.195436
 C        -2.552418        -0.063905         1.727866
 C        -3.347770         0.702585         0.504222
 C        -2.691848         2.076199         0.325162
 C        -1.212216         1.927994        -0.039504
 O        -2.742298        -0.192660        -0.476472
 C        -1.751283        -0.597191         0.541357
 H         1.225037         0.975294         0.374949
 H        -0.854804        -0.082860         2.845441
 H        -1.235271         1.764067         2.503069
 H        -3.151150        -0.706640         2.338780
 H        -4.476302         0.603273         0.426484
 H        -3.252249         2.652371        -0.418885
 H        -2.897077         2.630893         1.241007
 H        -1.026292         1.757904        -1.116782
 H        -0.754466         2.791188         0.291909
 H        -1.282174        -1.542565         0.220842
