19
Iteration:  2719
 O         0.556410         0.266600         0.475024
 C        -0.759322         0.585716         0.796433
 C        -1.298248         0.763348         2.244071
 C        -2.592776        -0.079654         1.643246
 C        -3.332111         0.764090         0.544418
 C        -2.754858         2.058415         0.272295
 C        -1.196777         1.875522         0.112749
 O        -2.745713        -0.261635        -0.475640
 C        -1.730249        -0.557896         0.535287
 H         1.220320         1.068189         0.656493
 H        -0.855255         0.076453         3.008022
 H        -1.329052         1.877811         2.428185
 H        -3.117458        -0.683209         2.296201
 H        -4.435140         0.711687         0.655859
 H        -3.223106         2.443499        -0.719609
 H        -2.804311         2.743357         1.144128
 H        -0.831356         1.881547        -0.956742
 H        -0.660848         2.780615         0.592142
 H        -1.341267        -1.586357         0.553689
