19
Iteration:  1221
 O         0.672102         0.363174         0.814641
 C        -0.722075         0.596714         0.693081
 C        -1.251730         0.729306         2.102538
 C        -2.534558        -0.057378         1.700560
 C        -3.325663         0.737815         0.572385
 C        -2.658647         2.098296         0.326987
 C        -1.237233         1.800511        -0.094719
 O        -2.860536        -0.220186        -0.490032
 C        -1.898626        -0.641258         0.446959
 H         1.085991         1.257753         0.735788
 H        -0.787470         0.117251         2.896065
 H        -1.343308         1.643375         2.768804
 H        -3.105667        -0.807140         2.361426
 H        -4.393731         0.669269         0.569365
 H        -3.176028         2.636704        -0.476040
 H        -2.656164         2.545642         1.447251
 H        -1.305778         1.584854        -1.218751
 H        -0.687294         2.747710         0.003621
 H        -1.448532        -1.538521         0.183318
