19
Iteration:  4216charge 0 multiplicity 1
 O         0.604693         0.443285         0.700450
 C        -0.683801         0.579533         0.797252
 C        -1.263962         0.632933         2.253818
 C        -2.564524        -0.121112         1.704485
 C        -3.305268         0.732223         0.512275
 C        -2.686386         2.082934         0.238701
 C        -1.159878         1.833015         0.000131
 O        -2.878162        -0.176363        -0.439114
 C        -1.815834        -0.612822         0.414651
 H         0.967320         0.837197        -0.215387
 H        -0.652606        -0.060153         2.885992
 H        -1.672027         1.565542         2.694325
 H        -3.300799        -0.666924         2.312378
 H        -4.447324         0.814731         0.600287
 H        -3.187895         2.578741        -0.545589
 H        -2.716056         2.825409         1.070238
 H        -1.082487         1.557043        -1.062751
 H        -0.605719         2.718296         0.201299
 H        -1.544654        -1.644148         0.266671
