19
Iteration:  4191charge 0 multiplicity 1
 O         0.621270         0.414442         0.690556
 C        -0.750454         0.625976         0.790434
 C        -1.278799         0.567896         2.234270
 C        -2.637842        -0.116823         1.705214
 C        -3.329052         0.749871         0.673781
 C        -2.706954         2.112860         0.207448
 C        -1.191937         1.876828        -0.017057
 O        -2.806544        -0.196858        -0.495193
 C        -1.728037        -0.558547         0.421472
 H         0.854864         0.015595        -0.176010
 H        -0.714946        -0.218326         2.663228
 H        -1.462102         1.510175         2.783297
 H        -3.205547        -0.763490         2.444211
 H        -4.389736         0.896682         0.639812
 H        -3.359573         2.252415        -0.688615
 H        -2.801331         3.104823         0.668997
 H        -0.991340         1.717774        -1.070652
 H        -0.560867         2.792447         0.383505
 H        -1.302575        -1.564467         0.483847
