19
Iteration:  2919
 O         0.645408         0.345193         0.539998
 C        -0.794169         0.617448         0.773984
 C        -1.341170         0.587299         2.251202
 C        -2.574056        -0.052884         1.740996
 C        -3.306143         0.730801         0.529409
 C        -2.686124         2.183878         0.271673
 C        -1.221638         1.850519        -0.019012
 O        -2.801939        -0.292009        -0.520431
 C        -1.745457        -0.543671         0.568650
 H         1.188982         1.165848         0.547626
 H        -0.823682        -0.066530         2.951465
 H        -1.360431         1.402374         2.923621
 H        -3.219612        -0.494774         2.423968
 H        -4.405943         0.793602         0.482790
 H        -3.133597         2.783262        -0.542827
 H        -2.895789         2.718668         1.217692
 H        -1.077821         1.464513        -1.058406
 H        -0.601094         2.797811         0.188068
 H        -1.516062        -1.585807         0.580487
