19
Iteration:  4796
 O         0.667046         0.405656         0.794694
 C        -0.663555         0.594341         0.766599
 C        -1.354572         0.607972         2.165268
 C        -2.580951        -0.111638         1.686441
 C        -3.315723         0.709212         0.598986
 C        -2.622138         2.176917         0.233216
 C        -1.204690         1.923614        -0.061481
 O        -2.886832        -0.221540        -0.462150
 C        -1.858790        -0.658882         0.387359
 H         0.906843         0.578481        -0.080393
 H        -0.665865        -0.041145         2.828367
 H        -1.592464         1.543403         2.747462
 H        -3.232829        -0.855304         2.232235
 H        -4.418608         0.842958         0.723766
 H        -3.194522         2.686555        -0.561596
 H        -2.695855         2.838327         1.126174
 H        -0.623076         1.902018        -1.100880
 H        -0.600926         2.652973         0.650803
 H        -1.538011        -1.676451         0.238176
