19
Iteration:  2493charge 0 multiplicity 1
 O         0.660720         0.369598         0.562631
 C        -0.715624         0.572125         0.817686
 C        -1.401020         0.674850         2.229865
 C        -2.546772        -0.019586         1.737941
 C        -3.328722         0.687927         0.566804
 C        -2.746895         2.094506         0.258452
 C        -1.211119         1.782885        -0.015475
 O        -2.807654        -0.169144        -0.453990
 C        -1.746966        -0.587259         0.520050
 H         0.893544         0.726880        -0.285940
 H        -0.729633         0.233375         2.982207
 H        -1.449772         1.672174         2.598875
 H        -3.188614        -0.607436         2.517756
 H        -4.405009         0.728312         0.567302
 H        -3.225146         2.535203        -0.619047
 H        -2.715608         2.733588         1.186780
 H        -1.135344         1.450739        -1.031576
 H        -0.546707         2.631645         0.181956
 H        -1.157147        -1.462012         0.221097
