19
Iteration:  4250
 O         0.663269         0.243989         0.670024
 C        -0.663019         0.631430         0.686834
 C        -1.315994         0.683595         2.186025
 C        -2.631343         0.042523         1.664662
 C        -3.359677         0.672097         0.504925
 C        -2.771938         2.061021         0.378722
 C        -1.227025         1.875447        -0.020915
 O        -2.785205        -0.231126        -0.457682
 C        -1.765326        -0.542470         0.465167
 H         1.197384         1.029541         0.269232
 H        -0.625295         0.065087         2.824963
 H        -1.447806         1.572711         2.848702
 H        -3.132247        -0.502191         2.424562
 H        -4.490054         0.738937         0.390271
 H        -3.272974         2.697567        -0.310693
 H        -2.684526         2.482554         1.385649
 H        -1.083358         1.832079        -1.118154
 H        -0.626619         2.657378         0.315495
 H        -1.447437        -1.553509         0.621174
