19
Iteration:  2112charge 0 multiplicity 1
 O         0.642983         0.240650         0.708155
 C        -0.719830         0.671308         0.709931
 C        -1.297507         0.740515         2.167388
 C        -2.555092         0.003466         1.667649
 C        -3.407795         0.707958         0.532005
 C        -2.763784         2.106087         0.392725
 C        -1.234139         1.839649        -0.106503
 O        -2.793624        -0.284181        -0.415123
 C        -1.721946        -0.547292         0.456931
 H         1.230842         1.062252         0.604182
 H        -0.640061         0.044135         2.766024
 H        -1.240891         1.598204         2.771261
 H        -3.074028        -0.598602         2.486865
 H        -4.532439         0.628505         0.398322
 H        -3.208905         2.612120        -0.505462
 H        -2.782217         2.662159         1.345366
 H        -1.273916         1.571647        -1.251268
 H        -0.705587         2.786655        -0.039366
 H        -1.337952        -1.620105         0.334181
