19
Iteration:  1460
 O         0.688232         0.388100         0.512101
 C        -0.700550         0.572067         0.873521
 C        -1.239499         0.604677         2.283587
 C        -2.580463         0.006506         1.729989
 C        -3.353627         0.742229         0.437061
 C        -2.779419         2.104056         0.142994
 C        -1.209872         1.869450         0.115297
 O        -2.796527        -0.179190        -0.475646
 C        -1.865854        -0.551736         0.559192
 H         0.992393        -0.470009         0.530403
 H        -0.934221        -0.226957         2.942208
 H        -1.118362         1.505277         2.751253
 H        -3.149693        -0.777425         2.260547
 H        -4.465713         0.604155         0.432274
 H        -3.150980         2.435030        -0.847162
 H        -3.087305         2.767920         0.967570
 H        -0.734002         1.900960        -0.911046
 H        -0.759842         2.706183         0.677389
 H        -1.481749        -1.626562         0.348208
