19
Iteration:  2444charge 0 multiplicity 1
 O         0.623189         0.311093         0.617511
 C        -0.748424         0.636288         0.752418
 C        -1.240296         0.612311         2.252967
 C        -2.564134         0.077877         1.687894
 C        -3.312964         0.671259         0.542348
 C        -2.761639         2.118576         0.174713
 C        -1.226640         1.975135         0.062538
 O        -2.865590        -0.351048        -0.411960
 C        -1.732452        -0.519717         0.498116
 H         0.994219         0.343962        -0.318845
 H        -0.729651        -0.224873         2.717598
 H        -1.033937         1.409012         3.015412
 H        -3.129797        -0.529372         2.298560
 H        -4.416450         0.778641         0.648499
 H        -3.071879         2.380783        -0.853323
 H        -3.217823         2.666755         0.956272
 H        -0.893324         2.040564        -1.053861
 H        -0.676291         2.730791         0.781222
 H        -1.286673        -1.502310         0.309453
