19
Iteration:  2104
 O         0.718630         0.237123         0.756425
 C        -0.750574         0.646208         0.717749
 C        -1.282115         0.784971         2.199942
 C        -2.507517        -0.077784         1.691597
 C        -3.412324         0.737270         0.577956
 C        -2.748399         2.045373         0.328424
 C        -1.289203         1.844693        -0.152361
 O        -2.826631        -0.265929        -0.450835
 C        -1.771534        -0.524488         0.447530
 H         1.215713         1.048183         0.579807
 H        -0.704257         0.015432         2.696995
 H        -1.333228         1.833468         2.544506
 H        -3.039112        -0.734835         2.310954
 H        -4.484299         0.769063         0.442227
 H        -3.374366         2.869906        -0.269218
 H        -2.568067         2.642075         1.272034
 H        -1.125448         1.628196        -1.210513
 H        -0.726520         2.754139         0.146881
 H        -1.368697        -1.532503         0.307785
