19
Iteration:   721charge 0 multiplicity 1
 O         0.626202         0.285611         0.568564
 C        -0.712180         0.573664         0.803421
 C        -1.226388         0.703821         2.222844
 C        -2.586840         0.140350         1.683823
 C        -3.370297         0.663805         0.440928
 C        -2.840253         2.117010         0.182480
 C        -1.265868         1.904881         0.120359
 O        -2.673503        -0.270576        -0.434293
 C        -1.767757        -0.552880         0.580048
 H         0.634157        -0.437072        -0.162230
 H        -0.817444        -0.149945         2.851597
 H        -1.255015         1.699838         2.735149
 H        -3.092066        -0.436438         2.361383
 H        -4.522222         0.596566         0.353061
 H        -3.189581         2.454164        -0.724688
 H        -2.962381         2.857924         0.978039
 H        -1.036429         1.849472        -0.960314
 H        -0.754589         2.697910         0.770010
 H        -1.381901        -1.660193         0.680776
