19
Iteration:  4806
 O         0.633637         0.364532         0.809756
 C        -0.787884         0.559572         0.755369
 C        -1.289719         0.586495         2.172817
 C        -2.536515        -0.114290         1.675504
 C        -3.321416         0.717238         0.567234
 C        -2.700578         2.082363         0.213593
 C        -1.117412         1.945781        -0.021524
 O        -2.888278        -0.159291        -0.473000
 C        -1.809372        -0.598735         0.432692
 H         1.086739         0.680199         0.006264
 H        -0.689690        -0.147183         2.772323
 H        -1.172304         1.577457         2.618416
 H        -3.196483        -0.598514         2.440160
 H        -4.439144         0.766090         0.589852
 H        -3.176420         2.499580        -0.682170
 H        -2.883459         2.750831         1.056890
 H        -0.909036         2.172469        -1.170652
 H        -0.623453         2.843455         0.518650
 H        -1.545908        -1.655858         0.357579
