19
Iteration:  3809
 O         0.634229         0.370736         0.675649
 C        -0.771808         0.605096         0.771095
 C        -1.364527         0.634384         2.186659
 C        -2.599475        -0.112571         1.699637
 C        -3.297559         0.782815         0.587142
 C        -2.681650         2.129441         0.294601
 C        -1.147398         1.812256        -0.070906
 O        -2.805512        -0.228107        -0.481678
 C        -1.803614        -0.566389         0.528279
 H         0.996667         0.914064         0.036456
 H        -0.852049         0.009436         2.876530
 H        -1.539421         1.593069         2.708177
 H        -3.013839        -0.828904         2.493491
 H        -4.437640         0.623577         0.517264
 H        -3.247867         2.626350        -0.445712
 H        -2.718386         2.963726         1.016663
 H        -1.049584         1.523157        -1.118454
 H        -0.456600         2.669881         0.105250
 H        -1.324661        -1.482321         0.191126
