19
Iteration:   145
 O         0.633703         0.341324         0.614095
 C        -0.748000         0.573388         0.765187
 C        -1.293038         0.649350         2.232767
 C        -2.579984         0.058476         1.704876
 C        -3.328670         0.727482         0.484130
 C        -2.726036         2.113645         0.217979
 C        -1.196512         1.880161         0.090480
 O        -2.792691        -0.294645        -0.473021
 C        -1.799130        -0.608278         0.540466
 H         0.920434         0.814357        -0.129223
 H        -0.767438        -0.087003         2.811036
 H        -1.338806         1.596891         2.756536
 H        -3.235349        -0.361309         2.475772
 H        -4.451326         0.626373         0.547298
 H        -3.150200         2.524989        -0.717035
 H        -2.964929         2.781129         0.988437
 H        -0.904665         1.861175        -0.995276
 H        -0.561287         2.634294         0.500128
 H        -1.321348        -1.556932         0.513513
