19
Iteration:  4362
 O         0.601765         0.272484         0.534205
 C        -0.675126         0.647584         0.765789
 C        -1.357622         0.733393         2.287523
 C        -2.609088        -0.120968         1.690390
 C        -3.388544         0.692520         0.614456
 C        -2.648706         2.078899         0.283542
 C        -1.158530         1.848468        -0.056936
 O        -2.796444        -0.181798        -0.475427
 C        -1.761478        -0.498659         0.506203
 H         1.125267         0.928745         0.996131
 H        -0.983265        -0.030202         2.983002
 H        -1.655867         1.708825         2.699139
 H        -3.080456        -0.840141         2.413246
 H        -4.482381         0.717340         0.492057
 H        -3.103619         2.359456        -0.647836
 H        -2.786324         2.634062         1.188223
 H        -1.145611         1.609144        -1.134785
 H        -0.639893         2.749271         0.112543
 H        -1.317496        -1.546336         0.299410
