19
Iteration:  1905charge 0 multiplicity 1
 O         0.609971         0.360512         0.505098
 C        -0.719272         0.611879         0.834522
 C        -1.390446         0.588040         2.330497
 C        -2.587455        -0.046431         1.748385
 C        -3.296430         0.716202         0.520778
 C        -2.708807         2.086761         0.195104
 C        -1.130991         1.897657         0.089069
 O        -2.782471        -0.257680        -0.512411
 C        -1.792975        -0.521733         0.516085
 H         0.714019         0.660952        -0.483540
 H        -0.803241        -0.029490         3.135004
 H        -1.499854         1.637900         2.895715
 H        -3.227778        -0.649174         2.421071
 H        -4.395206         0.696940         0.592902
 H        -3.190073         2.719651        -0.700731
 H        -2.924089         2.715041         1.086296
 H        -0.885886         1.697021        -1.006230
 H        -0.577718         2.780563         0.341534
 H        -1.306762        -1.549785         0.458566
