19
Iteration:   311charge 0 multiplicity 1
 O         0.653369         0.270580         0.679791
 C        -0.689794         0.619925         0.755933
 C        -1.293425         0.717467         2.170461
 C        -2.508624        -0.015698         1.672054
 C        -3.364083         0.676944         0.587751
 C        -2.761079         2.021857         0.177695
 C        -1.214482         1.894079        -0.040627
 O        -2.857157        -0.162688        -0.439757
 C        -1.768367        -0.567359         0.501578
 H         1.182360         0.498475         1.542776
 H        -0.795637         0.084455         2.874078
 H        -1.355937         1.741926         2.472484
 H        -3.076477        -0.671508         2.387809
 H        -4.511351         0.660278         0.729069
 H        -3.273506         2.441168        -0.785219
 H        -2.949789         2.660205         1.007634
 H        -1.026326         1.810040        -1.124771
 H        -0.730341         2.732799         0.253830
 H        -1.378980        -1.535400         0.337428
