19
Iteration:   867charge 0 multiplicity 1
 O         0.605428         0.159280         0.515578
 C        -0.696348         0.631886         0.730340
 C        -1.282895         0.750457         2.201508
 C        -2.560225        -0.024577         1.712076
 C        -3.407661         0.707840         0.555729
 C        -2.765391         2.047684         0.137691
 C        -1.164843         2.015056         0.230047
 O        -2.812885        -0.316200        -0.427595
 C        -1.736189        -0.513426         0.492656
 H         1.376364         0.824358         0.719522
 H        -0.692419         0.341998         3.045721
 H        -1.638420         1.798496         2.589206
 H        -3.232622        -0.713872         2.350356
 H        -4.456910         0.745389         0.514909
 H        -2.957407         2.063429        -0.841020
 H        -3.226776         2.874650         0.630796
 H        -0.925266         2.125056        -0.831503
 H        -0.591656         2.914908         0.801668
 H        -1.349411        -1.538499         0.326353
