19
Iteration:  2018
 O         0.630393         0.364679         0.542742
 C        -0.755188         0.564731         0.748765
 C        -1.255421         0.632272         2.191477
 C        -2.603352         0.056519         1.703980
 C        -3.377106         0.747910         0.471034
 C        -2.772914         2.152720         0.218760
 C        -1.239960         1.857615         0.153340
 O        -2.743398        -0.326657        -0.456916
 C        -1.724553        -0.546996         0.589246
 H         0.841022        -0.054613        -0.298650
 H        -0.760560        -0.023747         2.923430
 H        -1.136162         1.755801         2.625398
 H        -3.328415        -0.430916         2.280925
 H        -4.450050         0.625256         0.426539
 H        -3.159420         2.491438        -0.769807
 H        -3.022834         2.769219         1.110416
 H        -0.842834         1.913450        -0.812889
 H        -0.660146         2.578721         0.809634
 H        -1.304724        -1.493871         0.847961
