19
Iteration:  4290charge 0 multiplicity 1
 O         0.561120         0.271372         0.451141
 C        -0.762619         0.634148         0.865603
 C        -1.386148         0.636908         2.361792
 C        -2.483762        -0.067330         1.682832
 C        -3.304853         0.772724         0.592665
 C        -2.724762         2.073903         0.202842
 C        -1.199605         1.898248        -0.020555
 O        -2.790920        -0.194850        -0.444224
 C        -1.724188        -0.554887         0.497325
 H         1.321339         0.799637         0.797404
 H        -0.939107        -0.042783         3.093178
 H        -1.598049         1.688897         2.625578
 H        -3.152308        -0.801966         2.193508
 H        -4.419895         0.698054         0.672200
 H        -3.157456         2.135281        -0.869592
 H        -2.966385         2.960302         0.898284
 H        -0.877388         1.655181        -1.038283
 H        -0.610220         2.835712         0.437202
 H        -1.269443        -1.562000         0.324122
