19
Iteration:  3533
 O         0.623077         0.250808         0.642722
 C        -0.785623         0.612594         0.734375
 C        -1.346658         0.711090         2.225921
 C        -2.533228        -0.001647         1.675508
 C        -3.371976         0.687012         0.544659
 C        -2.685574         2.122922         0.379186
 C        -1.261430         1.871087        -0.057463
 O        -2.729378        -0.236860        -0.475238
 C        -1.769843        -0.577079         0.429935
 H         1.321115         0.961178         0.413787
 H        -0.886547         0.041386         2.967018
 H        -1.463745         1.651186         2.692676
 H        -3.164244        -0.508773         2.370304
 H        -4.455091         0.647621         0.814174
 H        -3.110967         2.624739        -0.461081
 H        -2.701268         2.673488         1.331588
 H        -1.070266         1.721866        -1.128221
 H        -0.655454         2.809586         0.149607
 H        -1.436208        -1.647150         0.418576
