19
Iteration:   789charge 0 multiplicity 1
 O         0.714382         0.433104         0.791225
 C        -0.713937         0.612634         0.741828
 C        -1.304051         0.710349         2.141597
 C        -2.542088        -0.046591         1.681876
 C        -3.362412         0.715185         0.575577
 C        -2.641856         2.080977         0.333236
 C        -1.194938         1.732454        -0.152742
 O        -2.888763        -0.205371        -0.470726
 C        -1.875494        -0.651664         0.466686
 H         1.111165         1.161641         0.412886
 H        -0.821985         0.095039         2.918298
 H        -1.498396         1.781052         2.475574
 H        -3.123093        -0.588284         2.398916
 H        -4.440898         0.717022         0.618043
 H        -3.109544         2.572054        -0.406148
 H        -2.673259         2.716679         1.229056
 H        -1.203606         1.392905        -1.162802
 H        -0.709600         2.700361         0.061432
 H        -1.497408        -1.718100         0.310989
