19
Iteration:  4187
 O         0.611068         0.395123         0.693888
 C        -0.707681         0.617765         0.789239
 C        -1.259617         0.580125         2.203622
 C        -2.612679        -0.107989         1.711557
 C        -3.344675         0.761646         0.636816
 C        -2.724286         2.115125         0.213539
 C        -1.187785         1.895791         0.013222
 O        -2.810755        -0.206592        -0.485618
 C        -1.717624        -0.537801         0.444151
 H         0.847492        -0.091402        -0.165593
 H        -0.731892        -0.221934         2.793282
 H        -1.470012         1.422292         2.856077
 H        -3.313625        -0.716494         2.315332
 H        -4.454525         0.753959         0.640223
 H        -3.361960         2.286023        -0.720690
 H        -2.921509         3.083763         0.699342
 H        -1.045551         1.703576        -1.081084
 H        -0.676128         2.842207         0.285149
 H        -1.395646        -1.650802         0.345411
