19
Iteration:  3532charge 0 multiplicity 1
 O         0.628261         0.247646         0.652272
 C        -0.781315         0.606513         0.727855
 C        -1.344414         0.713529         2.219303
 C        -2.528061        -0.001607         1.664928
 C        -3.369853         0.692084         0.542703
 C        -2.688915         2.121044         0.383802
 C        -1.269642         1.874402        -0.054458
 O        -2.736377        -0.236259        -0.473530
 C        -1.760552        -0.575012         0.432957
 H         1.264955         0.944240         0.427089
 H        -0.878920         0.039211         2.978978
 H        -1.449716         1.652993         2.690009
 H        -3.166198        -0.481643         2.341931
 H        -4.454943         0.648738         0.829431
 H        -3.169126         2.635136        -0.459750
 H        -2.739922         2.663503         1.341658
 H        -1.047052         1.727613        -1.125225
 H        -0.634850         2.784453         0.115858
 H        -1.456071        -1.657757         0.428874
