19
Iteration:  3373charge 0 multiplicity 1
 O         0.632712         0.324028         0.674714
 C        -0.731247         0.638713         0.809389
 C        -1.284560         0.605430         2.207376
 C        -2.579253        -0.112108         1.669944
 C        -3.343679         0.699613         0.579506
 C        -2.679257         2.146473         0.271854
 C        -1.183934         1.834801        -0.137944
 O        -2.884570        -0.143375        -0.450235
 C        -1.740603        -0.539841         0.439365
 H         1.150751         1.123658         1.169711
 H        -0.768066        -0.028147         2.932556
 H        -1.546293         1.539254         2.823236
 H        -3.210690        -0.915025         2.204870
 H        -4.401746         0.615589         0.739297
 H        -3.251817         2.505374        -0.615206
 H        -2.752098         2.762510         1.171524
 H        -1.096741         1.379133        -1.093619
 H        -0.645293         2.712219         0.002576
 H        -1.314018        -1.543680         0.432596
