19
Iteration:  4452charge 0 multiplicity 1
 O         0.627651         0.418605         0.621712
 C        -0.720424         0.628565         0.821282
 C        -1.285630         0.617575         2.260693
 C        -2.551914        -0.149502         1.686040
 C        -3.294829         0.767617         0.557983
 C        -2.679888         2.134782         0.161429
 C        -1.151469         1.847156         0.092685
 O        -2.859331        -0.221797        -0.464985
 C        -1.817634        -0.585788         0.484120
 H         0.767323         0.386141        -0.325887
 H        -0.858996        -0.135049         2.960241
 H        -1.602866         1.625295         2.743025
 H        -3.400356        -0.698160         2.164763
 H        -4.376659         0.893516         0.629277
 H        -3.262698         2.378316        -0.798926
 H        -3.023717         2.929174         0.811091
 H        -0.972111         1.681025        -0.973851
 H        -0.550852         2.636326         0.447092
 H        -1.360861        -1.651101         0.508110
