19
Iteration:   419
 O         0.621104         0.296954         0.578111
 C        -0.696453         0.701171         0.818073
 C        -1.307466         0.701222         2.228476
 C        -2.551786         0.006391         1.725083
 C        -3.316385         0.666741         0.498519
 C        -2.752745         2.055595         0.104783
 C        -1.053220         2.123570         0.177919
 O        -2.894123        -0.399109        -0.469946
 C        -1.815547        -0.573738         0.514280
 H         0.633674        -0.603583         0.007306
 H        -0.746016         0.058272         2.893594
 H        -1.428626         1.685977         2.642394
 H        -3.099235        -0.635583         2.530494
 H        -4.410292         0.652058         0.360998
 H        -3.282857         2.170924        -0.903904
 H        -3.116175         2.808558         0.747290
 H        -0.478455         2.233864        -0.849951
 H        -0.799245         2.893625         0.930235
 H        -1.355934        -1.484351         0.542741
