19
Iteration:  1062charge 0 multiplicity 1
 O         0.623221         0.215849         0.677177
 C        -0.741171         0.665890         0.774934
 C        -1.329257         0.753176         2.172036
 C        -2.556063        -0.049741         1.664476
 C        -3.343305         0.684072         0.540390
 C        -2.704686         2.063071         0.340105
 C        -1.288420         1.801302        -0.116477
 O        -2.809151        -0.211216        -0.471705
 C        -1.686936        -0.487552         0.516276
 H         1.157001         1.124069         0.838999
 H        -0.764832         0.044576         2.825464
 H        -1.374169         1.821313         2.434959
 H        -3.072538        -0.629236         2.343235
 H        -4.464672         0.696076         0.744067
 H        -3.276581         2.644664        -0.421148
 H        -2.764040         2.662359         1.410040
 H        -1.233409         1.503912        -1.115158
 H        -0.676973         2.711684         0.001574
 H        -1.133603        -1.506969         0.384603
