19
Iteration:    23
 O         0.652440         0.544197         0.676328
 C        -0.767880         0.569159         0.790733
 C        -1.420770         0.693987         2.232805
 C        -2.572039        -0.143229         1.685406
 C        -3.256999         0.808217         0.635997
 C        -2.615285         2.192699         0.328140
 C        -1.250981         1.689876        -0.212030
 O        -2.799033        -0.206820        -0.458714
 C        -1.772885        -0.641685         0.462202
 H         1.025137        -0.377066         0.802387
 H        -0.901279         0.181463         3.041137
 H        -1.719065         1.643751         2.637926
 H        -3.252654        -0.763239         2.261624
 H        -4.346239         0.792632         0.656294
 H        -3.162438         2.743981        -0.435138
 H        -2.564920         2.841609         1.186135
 H        -1.442191         1.121484        -1.125503
 H        -0.422450         2.356487        -0.378761
 H        -1.358724        -1.638026         0.232252
