19
Iteration:  4825charge 0 multiplicity 1
 O         0.622048         0.248843         0.719552
 C        -0.695576         0.635561         0.845434
 C        -1.236803         0.615108         2.201566
 C        -2.552334         0.023896         1.693008
 C        -3.364209         0.692831         0.572544
 C        -2.752068         2.130804         0.216218
 C        -1.266285         1.848522         0.104214
 O        -2.805032        -0.219119        -0.524710
 C        -1.793091        -0.477909         0.391657
 H         1.125657         0.570309        -0.115217
 H        -0.674977        -0.122434         2.705400
 H        -1.255870         1.457420         2.876533
 H        -3.251504        -0.683077         2.182635
 H        -4.449984         0.807799         0.597357
 H        -3.015416         2.365429        -0.826181
 H        -3.071830         2.900442         0.890869
 H        -0.986420         1.745984        -0.948823
 H        -0.681310         2.679371         0.381242
 H        -1.263489        -1.506972         0.287871
