19
Iteration:  3777charge 0 multiplicity 1
 O         0.638327         0.386501         0.665859
 C        -0.741254         0.559601         0.797577
 C        -1.302613         0.682888         2.231345
 C        -2.556314         0.054115         1.716019
 C        -3.325582         0.712699         0.471754
 C        -2.755857         2.083643         0.375477
 C        -1.172115         1.839181        -0.041288
 O        -2.761507        -0.252321        -0.563047
 C        -1.834762        -0.565598         0.519360
 H         0.792684        -0.062080        -0.296643
 H        -0.930226         0.097453         3.032619
 H        -1.362266         1.698477         2.626737
 H        -3.125253        -0.697752         2.393551
 H        -4.486980         0.740719         0.503630
 H        -3.303358         2.755485        -0.300853
 H        -2.654425         2.542087         1.386758
 H        -1.080557         1.476079        -1.069698
 H        -0.662478         2.745497         0.327575
 H        -1.326370        -1.520927         0.345426
