19
Iteration:  2694
 O         0.684435         0.321013         0.573822
 C        -0.751412         0.626014         0.746713
 C        -1.280673         0.613066         2.294241
 C        -2.590807         0.037418         1.757020
 C        -3.353351         0.775125         0.441411
 C        -2.793614         2.089203         0.305982
 C        -1.223381         1.823577        -0.026708
 O        -2.745207        -0.287381        -0.460416
 C        -1.818011        -0.546873         0.491890
 H         1.255779         1.183634         0.695620
 H        -0.828095        -0.259590         2.725714
 H        -1.268441         1.539921         2.879623
 H        -3.149412        -0.549790         2.633787
 H        -4.454814         0.638155         0.492264
 H        -3.279684         2.753186        -0.459711
 H        -2.808818         2.669883         1.246019
 H        -1.203002         1.486110        -1.096829
 H        -0.523253         2.875474         0.036291
 H        -1.407396        -1.573645         0.339510
