19
Iteration:  4794
 O         0.684219         0.413584         0.788277
 C        -0.666583         0.612038         0.753129
 C        -1.357585         0.615133         2.180350
 C        -2.596196        -0.110413         1.676817
 C        -3.310889         0.730292         0.599622
 C        -2.617021         2.187324         0.245598
 C        -1.203097         1.907384        -0.044063
 O        -2.888846        -0.237773        -0.465307
 C        -1.864870        -0.667564         0.391565
 H         0.900301         0.533470        -0.101848
 H        -0.721407         0.001483         2.825219
 H        -1.674432         1.504826         2.737645
 H        -3.203130        -0.901277         2.207693
 H        -4.413273         0.816814         0.737585
 H        -3.214317         2.697240        -0.518448
 H        -2.669483         2.838642         1.088650
 H        -0.638898         1.813466        -1.095874
 H        -0.585388         2.620461         0.596933
 H        -1.487372        -1.710624         0.161195
