19
Iteration:  4918
 O         0.633186         0.324353         0.834697
 C        -0.678344         0.673818         0.739218
 C        -1.296139         0.600216         2.245874
 C        -2.580589        -0.123494         1.598325
 C        -3.396690         0.761896         0.679736
 C        -2.771381         2.087784         0.191337
 C        -1.151197         1.840443        -0.081181
 O        -2.874768        -0.156185        -0.462704
 C        -1.715483        -0.525799         0.393656
 H         1.123906         0.496545        -0.023894
 H        -0.669379        -0.179256         2.745087
 H        -1.271085         1.427188         2.963056
 H        -3.203810        -0.698183         2.239930
 H        -4.443943         0.595277         0.884663
 H        -3.198833         2.413499        -0.739667
 H        -2.875682         2.831953         0.994939
 H        -0.946842         1.673742        -1.178838
 H        -0.506092         2.793315         0.159281
 H        -1.443821        -1.502911         0.245654
