19
Iteration:   796
 O         0.693437         0.412186         0.749918
 C        -0.671229         0.635696         0.747020
 C        -1.317463         0.699379         2.201640
 C        -2.544792         0.001937         1.642679
 C        -3.374394         0.729299         0.543965
 C        -2.725049         2.064580         0.332775
 C        -1.208904         1.709773        -0.145210
 O        -2.835860        -0.199899        -0.458221
 C        -1.870648        -0.677055         0.487181
 H         1.218311         1.202391         0.475058
 H        -0.729892        -0.012058         2.837078
 H        -1.276598         1.665419         2.706122
 H        -3.168162        -0.502561         2.357701
 H        -4.543099         0.771969         0.684641
 H        -3.110970         2.768997        -0.558948
 H        -2.673661         2.565134         1.329906
 H        -1.207345         1.519912        -1.289157
 H        -0.544952         2.718626         0.004980
 H        -1.511645        -1.744616         0.503978
