19
Iteration:  4343
 O         0.673902         0.303687         0.600371
 C        -0.819494         0.593458         0.759907
 C        -1.257882         0.661482         2.196159
 C        -2.547031         0.009342         1.714203
 C        -3.284518         0.766263         0.504266
 C        -2.771880         2.140070         0.259845
 C        -1.241308         1.916045         0.042808
 O        -2.857294        -0.287159        -0.439887
 C        -1.766552        -0.637778         0.435131
 H         1.253878         0.894547         1.199650
 H        -0.593399        -0.006230         2.742803
 H        -1.344737         1.694625         2.591560
 H        -3.354231        -0.534914         2.279869
 H        -4.350760         0.684400         0.551501
 H        -3.160581         2.694297        -0.642448
 H        -2.749629         2.657153         1.235524
 H        -0.987301         1.683777        -0.965764
 H        -0.485824         2.614879         0.416224
 H        -1.408903        -1.721292         0.506596
