19
Iteration:  2658charge 0 multiplicity 1
 O         0.614646         0.360251         0.670681
 C        -0.748611         0.613758         0.758672
 C        -1.396038         0.692391         2.248574
 C        -2.479841        -0.159416         1.705125
 C        -3.283629         0.754116         0.658744
 C        -2.658477         2.082598         0.243738
 C        -1.173391         1.801241        -0.099472
 O        -2.863175        -0.192663        -0.441661
 C        -1.801350        -0.574227         0.404637
 H         1.080209         1.265352         0.447466
 H        -0.731124         0.201879         2.951678
 H        -1.556681         1.632839         2.733194
 H        -3.216251        -0.632284         2.473833
 H        -4.375568         0.770296         0.619556
 H        -3.252489         2.321865        -0.617976
 H        -2.868449         2.752969         1.121267
 H        -1.161029         1.539013        -1.195342
 H        -0.460149         2.777102         0.093032
 H        -1.361576        -1.524582         0.109155
