19
Iteration:  1097
 O         0.565649         0.261682         0.697225
 C        -0.792757         0.650581         0.752336
 C        -1.321914         0.733304         2.182944
 C        -2.483243        -0.198276         1.728240
 C        -3.281987         0.696990         0.631812
 C        -2.682441         2.112917         0.208566
 C        -1.217141         1.864838        -0.119327
 O        -2.861999        -0.196764        -0.460558
 C        -1.724326        -0.534352         0.477726
 H         1.156064         1.002942         1.094460
 H        -0.725968         0.289940         3.038151
 H        -1.526886         1.809277         2.542617
 H        -3.000762        -0.817156         2.373913
 H        -4.355753         0.712700         0.865326
 H        -3.221694         2.470318        -0.666530
 H        -2.979736         2.983937         1.042873
 H        -1.137932         1.610104        -1.193714
 H        -0.585139         2.736525         0.080116
 H        -1.213393        -1.441221         0.125095
