19
Iteration:   609charge 0 multiplicity 1
 O         0.630761         0.435797         0.700508
 C        -0.757745         0.614217         0.798068
 C        -1.377710         0.749280         2.285678
 C        -2.567801        -0.089185         1.725401
 C        -3.296102         0.699999         0.535160
 C        -2.589751         2.114891         0.218514
 C        -1.157404         1.839419        -0.085006
 O        -2.846171        -0.275790        -0.485775
 C        -1.828914        -0.626843         0.506668
 H         0.734440         0.341631        -0.247098
 H        -0.926884         0.053726         3.010321
 H        -1.502005         1.771220         2.652220
 H        -3.079499        -0.657049         2.469640
 H        -4.452115         0.818682         0.538204
 H        -3.198406         2.591263        -0.519609
 H        -2.685227         2.634632         1.155083
 H        -1.140925         1.379862        -1.149704
 H        -0.488825         2.724862         0.072133
 H        -1.283106        -1.522171         0.213307
