19
Iteration:  1141charge 0 multiplicity 1
 O         0.637254         0.336967         0.425624
 C        -0.702479         0.591387         0.794348
 C        -1.209015         0.617282         2.276768
 C        -2.654225         0.113666         1.755497
 C        -3.350193         0.762322         0.427152
 C        -2.774161         2.071235         0.118539
 C        -1.199106         1.888597         0.203196
 O        -2.790537        -0.335984        -0.446559
 C        -1.794069        -0.615081         0.594583
 H         1.201204         1.102468         0.777249
 H        -0.530205        -0.122982         2.857185
 H        -1.290562         1.672199         2.747957
 H        -3.266704        -0.469565         2.336818
 H        -4.444714         0.707494         0.258549
 H        -3.214014         2.513282        -0.750066
 H        -3.253373         2.910471         0.865274
 H        -0.783264         1.789525        -0.831326
 H        -0.695010         2.709207         0.714778
 H        -1.447292        -1.672044         0.747273
