19
Iteration:  2540charge 0 multiplicity 1
 O         0.649354         0.341381         0.817100
 C        -0.730509         0.646248         0.716379
 C        -1.245778         0.715754         2.109453
 C        -2.503384        -0.094223         1.701233
 C        -3.332696         0.705767         0.601809
 C        -2.760100         2.077587         0.279526
 C        -1.229413         1.920905        -0.072565
 O        -2.888478        -0.253481        -0.401493
 C        -1.782523        -0.593146         0.360812
 H         1.067287         0.074591        -0.103782
 H        -0.641213         0.157330         2.818641
 H        -1.285869         1.693136         2.645865
 H        -3.207402        -0.545672         2.489617
 H        -4.457556         0.773074         0.667642
 H        -3.190650         2.588976        -0.590381
 H        -2.678531         2.726097         1.172559
 H        -1.147248         1.751239        -1.121051
 H        -0.704073         2.713941         0.214936
 H        -1.293937        -1.570378         0.241774
