19
Iteration:  4451charge 0 multiplicity 1
 O         0.633339         0.424075         0.624367
 C        -0.716114         0.620467         0.835049
 C        -1.277946         0.619106         2.252319
 C        -2.558994        -0.143749         1.673790
 C        -3.289781         0.769630         0.546189
 C        -2.691079         2.128141         0.172991
 C        -1.140469         1.845675         0.093717
 O        -2.869701        -0.230040        -0.462103
 C        -1.828518        -0.578610         0.491049
 H         0.745116         0.423101        -0.391569
 H        -0.837966        -0.126441         2.985446
 H        -1.586807         1.633685         2.749032
 H        -3.404211        -0.721793         2.167394
 H        -4.389946         0.854100         0.617681
 H        -3.228235         2.392947        -0.806403
 H        -3.034960         2.949898         0.810595
 H        -0.946370         1.680220        -1.002724
 H        -0.515686         2.647648         0.457408
 H        -1.355170        -1.646888         0.479787
