19
Iteration:  3819
 O         0.627961         0.341976         0.691919
 C        -0.731141         0.634379         0.757319
 C        -1.290936         0.623307         2.311457
 C        -2.569051        -0.081020         1.705155
 C        -3.355769         0.718550         0.628266
 C        -2.667549         2.069392         0.188460
 C        -1.187992         1.845241        -0.071936
 O        -2.830467        -0.172769        -0.485199
 C        -1.808696        -0.550765         0.413375
 H         1.156005         1.010912         0.242616
 H        -0.824566        -0.082800         2.965976
 H        -1.389138         1.656871         2.699055
 H        -3.320765        -0.626514         2.375004
 H        -4.523108         0.781527         0.728714
 H        -3.165668         2.418981        -0.666847
 H        -2.769365         2.579677         1.149086
 H        -1.036613         1.628402        -1.119641
 H        -0.532360         2.709107         0.151981
 H        -1.396333        -1.576799         0.419973
