19
Iteration:  1231
 O         0.690522         0.444589         0.750385
 C        -0.713485         0.570265         0.725867
 C        -1.304696         0.627074         2.170481
 C        -2.608004        -0.073181         1.713971
 C        -3.378614         0.735190         0.546905
 C        -2.632246         2.095600         0.303645
 C        -1.226338         1.796729        -0.103751
 O        -2.872447        -0.176266        -0.465841
 C        -1.809620        -0.682750         0.478472
 H         1.144335         1.373684         0.772158
 H        -0.657377        -0.140109         2.671396
 H        -1.398257         1.743127         2.402476
 H        -2.938952        -0.744644         2.514583
 H        -4.429163         0.950482         0.457941
 H        -3.155664         2.758099        -0.357449
 H        -2.581201         2.856912         1.234838
 H        -1.163517         1.416365        -1.195077
 H        -0.596993         2.684471        -0.020423
 H        -1.614595        -1.706419         0.380125
