19
Iteration:  1501
 O         0.623597         0.386919         0.638623
 C        -0.756529         0.669360         0.749347
 C        -1.326104         0.628878         2.251361
 C        -2.564225        -0.148849         1.693238
 C        -3.362576         0.719421         0.527663
 C        -2.586572         2.110850         0.313350
 C        -1.140694         1.886429        -0.118948
 O        -2.867671        -0.196570        -0.449906
 C        -1.835592        -0.624624         0.425405
 H         0.966231         0.483115         1.630742
 H        -0.660786         0.134399         2.984926
 H        -1.607399         1.627035         2.741653
 H        -3.080585        -0.735766         2.401760
 H        -4.457229         0.857042         0.430863
 H        -3.159474         2.747508        -0.443682
 H        -2.465123         2.587788         1.274418
 H        -1.034680         1.572348        -1.161758
 H        -0.661690         2.774862         0.131553
 H        -1.444213        -1.674636         0.321788
