19
Iteration:  2520charge 0 multiplicity 1
 O         0.593099         0.280854         0.800569
 C        -0.740864         0.665502         0.668060
 C        -1.288176         0.723398         2.213897
 C        -2.475367        -0.025121         1.660639
 C        -3.303821         0.667030         0.607804
 C        -2.719017         2.075463         0.348005
 C        -1.228110         1.903366        -0.143769
 O        -2.907773        -0.276627        -0.493372
 C        -1.756335        -0.533400         0.490219
 H         1.162734         0.435003         0.036463
 H        -0.491709         0.131438         2.665594
 H        -1.176607         1.690627         2.820461
 H        -2.977008        -0.802779         2.154539
 H        -4.428251         0.760292         0.613243
 H        -3.447168         2.606066        -0.376560
 H        -2.763295         2.780318         1.227506
 H        -1.255366         1.638439        -1.228542
 H        -0.620027         2.794787         0.121387
 H        -1.209736        -1.503671         0.356494
