19
Iteration:    49
 O         0.686173         0.543009         0.746580
 C        -0.736533         0.646955         0.750740
 C        -1.255591         0.657017         2.193631
 C        -2.634230        -0.027836         1.732135
 C        -3.358960         0.758200         0.561246
 C        -2.606808         1.959181         0.316923
 C        -1.191858         1.760805        -0.189166
 O        -2.917411        -0.239326        -0.469480
 C        -1.814108        -0.572416         0.458538
 H         0.925549        -0.308877         1.119775
 H        -0.716755        -0.116950         2.738630
 H        -1.300655         1.633577         2.697499
 H        -3.314250        -0.608254         2.393951
 H        -4.465492         0.845541         0.538617
 H        -3.144138         2.692923        -0.494722
 H        -2.540976         2.567889         1.234167
 H        -0.994314         1.384696        -1.307660
 H        -0.566422         2.709673        -0.049215
 H        -1.383845        -1.515796         0.245228
