19
Iteration:  4019charge 0 multiplicity 1
 O         0.646609         0.214467         0.581666
 C        -0.772558         0.657715         0.804709
 C        -1.293466         0.693626         2.272032
 C        -2.590933        -0.046086         1.670036
 C        -3.284355         0.685552         0.514462
 C        -2.734681         2.077472         0.311180
 C        -1.277923         1.930416         0.022850
 O        -2.726906        -0.157563        -0.532462
 C        -1.765662        -0.559507         0.589100
 H         0.834243         0.047133        -0.458501
 H        -0.842606         0.070494         3.055414
 H        -1.445512         1.670593         2.815726
 H        -3.284656        -0.557019         2.361487
 H        -4.439954         0.710669         0.427539
 H        -3.133948         2.510855        -0.579593
 H        -3.048623         2.899748         1.030982
 H        -1.127674         1.582701        -1.023198
 H        -0.644286         2.727822         0.266825
 H        -1.316560        -1.527160         0.543449
