19
Iteration:   474
 O         0.709603         0.433678         0.792726
 C        -0.709855         0.523439         0.750192
 C        -1.283302         0.703418         2.169300
 C        -2.622354        -0.010053         1.714701
 C        -3.379538         0.728156         0.563222
 C        -2.688135         2.077168         0.292210
 C        -1.291693         1.731525        -0.059579
 O        -2.740210        -0.122148        -0.497240
 C        -1.835604        -0.662704         0.496950
 H         1.159874         0.832624        -0.012340
 H        -0.634764         0.073678         2.731917
 H        -1.296130         1.724997         2.507325
 H        -3.221367        -0.598664         2.520749
 H        -4.462131         0.692721         0.383963
 H        -3.181935         2.475347        -0.655457
 H        -2.799227         2.764891         1.057555
 H        -1.422492         1.346883        -1.202398
 H        -0.619304         2.599603        -0.140214
 H        -1.677606        -1.668377         0.406589
