19
Iteration:  4190charge 0 multiplicity 1
 O         0.615963         0.410680         0.693417
 C        -0.736264         0.622875         0.791164
 C        -1.270837         0.571438         2.225861
 C        -2.633770        -0.114820         1.707106
 C        -3.335017         0.753030         0.665111
 C        -2.710748         2.114185         0.210764
 C        -1.191114         1.880370        -0.009170
 O        -2.807676        -0.200209        -0.493365
 C        -1.722437        -0.551175         0.425961
 H         0.865456        -0.033425        -0.206532
 H        -0.726944        -0.216055         2.686715
 H        -1.474670         1.479976         2.799591
 H        -3.247464        -0.757622         2.422264
 H        -4.392931         0.863001         0.638993
 H        -3.381766         2.263549        -0.702171
 H        -2.827644         3.103807         0.658369
 H        -1.011208         1.712710        -1.075187
 H        -0.580695         2.833125         0.365976
 H        -1.325828        -1.605117         0.454456
