19
Iteration:  1811
 O         0.573359         0.459292         0.738112
 C        -0.743603         0.642678         0.793867
 C        -1.338965         0.569093         2.268677
 C        -2.588415        -0.147083         1.711862
 C        -3.241815         0.788982         0.559820
 C        -2.608007         2.119162         0.348963
 C        -1.246770         1.797426        -0.145867
 O        -2.813441        -0.145811        -0.579341
 C        -1.790789        -0.658952         0.479689
 H         0.809632         0.899078        -0.067533
 H        -0.706322        -0.059091         2.838567
 H        -1.375860         1.419612         2.806199
 H        -3.252576        -0.729434         2.391079
 H        -4.337587         0.916207         0.506646
 H        -3.139844         2.745449        -0.366203
 H        -2.595656         2.637267         1.363614
 H        -1.324061         1.270152        -1.198950
 H        -0.387761         2.606530        -0.048474
 H        -1.524230        -1.735598         0.470223
