19
Iteration:  2293
 O         0.614183         0.280234         0.668652
 C        -0.731043         0.693947         0.726958
 C        -1.192875         0.665105         2.246176
 C        -2.523447        -0.033536         1.714778
 C        -3.438714         0.694976         0.571618
 C        -2.730182         2.043838         0.204108
 C        -1.183540         2.007128         0.094093
 O        -2.886497        -0.330584        -0.431588
 C        -1.732175        -0.516933         0.445097
 H         0.887876         0.147769        -0.206039
 H        -0.561917        -0.085791         2.721127
 H        -1.288429         1.656937         2.720453
 H        -3.118340        -0.777858         2.313152
 H        -4.518867         0.654448         0.557110
 H        -2.970158         2.366916        -0.932968
 H        -3.148562         2.975930         0.780781
 H        -1.025211         1.993740        -0.975319
 H        -0.660597         2.970216         0.496468
 H        -1.232895        -1.438357         0.146652
