19
Iteration:  1242
 O         0.710956         0.466320         0.653562
 C        -0.753482         0.576693         0.799244
 C        -1.352096         0.579040         2.188138
 C        -2.605830        -0.080075         1.682870
 C        -3.345848         0.772527         0.565958
 C        -2.664455         2.117970         0.294250
 C        -1.164049         1.726963        -0.128988
 O        -2.858523        -0.188297        -0.436740
 C        -1.796492        -0.607066         0.480088
 H         0.988863         1.463619         0.709856
 H        -0.730613         0.000271         2.923231
 H        -1.329680         1.515441         2.875788
 H        -3.421224        -0.534733         2.235256
 H        -4.426288         0.725619         0.645446
 H        -3.154215         2.573597        -0.541288
 H        -2.733393         2.734186         1.298909
 H        -1.104000         1.474381        -1.248307
 H        -0.418697         2.491496         0.087811
 H        -1.497304        -1.609940         0.401077
