19
Iteration:  4939charge 0 multiplicity 1
 O         0.583320         0.385847         0.762613
 C        -0.802283         0.648817         0.816612
 C        -1.254766         0.632509         2.221646
 C        -2.546256        -0.194849         1.692622
 C        -3.247637         0.762374         0.603566
 C        -2.609153         2.118833         0.175284
 C        -1.187351         1.848356         0.039436
 O        -2.911282        -0.190043        -0.519822
 C        -1.825812        -0.609364         0.404065
 H         0.983182         0.641691        -0.004652
 H        -0.593309         0.144990         2.963623
 H        -1.469578         1.587916         2.634726
 H        -3.037602        -0.735864         2.481831
 H        -4.317196         0.856955         0.546696
 H        -3.098731         2.481326        -0.699485
 H        -2.984488         2.664893         1.030060
 H        -1.057754         1.741960        -1.086350
 H        -0.513979         2.791213         0.231056
 H        -1.364006        -1.473400         0.023999
