19
Iteration:  4225charge 0 multiplicity 1
 O         0.709170         0.373100         0.700279
 C        -0.721753         0.638577         0.835322
 C        -1.270885         0.620046         2.233760
 C        -2.592851        -0.038675         1.622793
 C        -3.356967         0.740276         0.546843
 C        -2.700409         2.136092         0.311893
 C        -1.237194         1.830343         0.007721
 O        -2.899068        -0.252697        -0.490867
 C        -1.789165        -0.640473         0.398075
 H         1.031522         1.015452        -0.069417
 H        -0.709860         0.139673         3.014081
 H        -1.264364         1.683752         2.570462
 H        -3.044371        -0.624429         2.434205
 H        -4.429363         0.877228         0.404193
 H        -3.163608         2.587973        -0.548956
 H        -2.781161         2.729772         1.247932
 H        -1.090584         1.510465        -1.018812
 H        -0.475451         2.654884         0.170155
 H        -1.382607        -1.623678         0.409668
