19
Iteration:   315
 O         0.660742         0.285716         0.715372
 C        -0.695304         0.621435         0.744369
 C        -1.292810         0.734547         2.138198
 C        -2.507519        -0.017192         1.694762
 C        -3.332359         0.696058         0.563770
 C        -2.780359         1.993323         0.218390
 C        -1.215314         1.857563        -0.070465
 O        -2.872466        -0.166106        -0.455907
 C        -1.774380        -0.567292         0.478999
 H         1.165296         0.453860         1.478445
 H        -0.684898         0.182446         2.965302
 H        -1.389064         1.812407         2.524035
 H        -3.070336        -0.602714         2.367688
 H        -4.432292         0.709405         0.654477
 H        -3.317225         2.468983        -0.595944
 H        -2.935362         2.609202         1.147817
 H        -1.049677         1.777081        -1.149542
 H        -0.582867         2.871679         0.357515
 H        -1.515140        -1.703020         0.314008
