19
Iteration:  2068charge 0 multiplicity 1
 O         0.622801         0.370695         0.671445
 C        -0.787902         0.634987         0.796186
 C        -1.332992         0.735832         2.179879
 C        -2.530005        -0.120083         1.678026
 C        -3.363652         0.757899         0.670714
 C        -2.634002         2.091519         0.195602
 C        -1.203214         1.814412        -0.021231
 O        -2.822424        -0.247762        -0.379694
 C        -1.792359        -0.571616         0.408636
 H         1.032431         0.973305         0.013160
 H        -0.825932         0.007680         2.826744
 H        -1.352439         1.541284         2.790280
 H        -3.010462        -0.958808         2.280568
 H        -4.479544         0.866574         0.678494
 H        -3.207674         2.232882        -0.757401
 H        -2.924131         2.929202         0.833169
 H        -1.024757         1.569579        -1.151835
 H        -0.479717         2.571053         0.242037
 H        -1.182317        -1.498226         0.130346
