19
Iteration:  1638
 O         0.603182         0.205033         0.701271
 C        -0.724381         0.677513         0.782700
 C        -1.278090         0.666849         2.283216
 C        -2.524126        -0.098487         1.711287
 C        -3.364507         0.713905         0.594680
 C        -2.704131         2.071368         0.244237
 C        -1.215227         1.877118        -0.072605
 O        -2.846139        -0.154950        -0.512466
 C        -1.734675        -0.528467         0.396892
 H         1.123848         0.984511         0.609432
 H        -0.787881         0.018206         3.032843
 H        -1.475314         1.833889         2.716286
 H        -3.097891        -0.801918         2.380993
 H        -4.455137         0.665767         0.693720
 H        -3.178208         2.437187        -0.653353
 H        -2.888773         2.798451         1.115000
 H        -1.186371         1.606852        -1.120944
 H        -0.756662         2.860270         0.230208
 H        -1.243865        -1.451399         0.127045
