19
Iteration:  2484charge 0 multiplicity 1
 O         0.662729         0.411373         0.519631
 C        -0.748143         0.533245         0.764330
 C        -1.328782         0.745876         2.319146
 C        -2.599544        -0.035406         1.691870
 C        -3.297398         0.734082         0.582988
 C        -2.734715         2.078745         0.282219
 C        -1.209749         1.776701         0.019553
 O        -2.771708        -0.189158        -0.469277
 C        -1.762134        -0.617554         0.520070
 H         0.827182         0.742059        -0.358332
 H        -0.951919        -0.019234         3.025188
 H        -1.450473         1.768967         2.696394
 H        -3.329201        -0.745097         2.281624
 H        -4.399756         0.661304         0.597031
 H        -3.192537         2.347386        -0.673327
 H        -2.844321         2.949628         1.031529
 H        -1.065712         1.646559        -1.020505
 H        -0.569559         2.502175         0.260994
 H        -1.484066        -1.678718         0.631239
