19
Iteration:  1946
 O         0.703201         0.409889         0.856031
 C        -0.728831         0.619633         0.740814
 C        -1.251046         0.603129         2.067830
 C        -2.538107        -0.038185         1.744965
 C        -3.326848         0.760598         0.600154
 C        -2.736739         2.121990         0.333990
 C        -1.214173         1.819562        -0.142167
 O        -2.846933        -0.226422        -0.551859
 C        -1.873359        -0.617428         0.497824
 H         1.146228         0.705976         0.069077
 H        -0.728712        -0.046449         2.727283
 H        -1.360147         1.497775         2.562764
 H        -3.193431        -0.562080         2.482064
 H        -4.430313         0.691611         0.678341
 H        -3.393321         2.525889        -0.433785
 H        -2.791014         2.702585         1.278028
 H        -1.229804         1.534678        -1.225869
 H        -0.624450         2.713259         0.042991
 H        -1.439154        -1.611964         0.274919
