19
Iteration:    63
 O         0.704297         0.446316         0.679363
 C        -0.714490         0.590611         0.755057
 C        -1.301277         0.649515         2.158221
 C        -2.552930         0.023487         1.650945
 C        -3.323869         0.736967         0.565699
 C        -2.710925         2.138062         0.204461
 C        -1.188224         1.837983        -0.013474
 O        -2.910215        -0.334019        -0.426909
 C        -1.814672        -0.559318         0.457086
 H         0.973733        -0.163043         1.405461
 H        -0.781770        -0.127476         2.851655
 H        -1.158066         1.592436         2.769152
 H        -3.151267        -0.591625         2.342530
 H        -4.401642         0.786453         0.699068
 H        -3.258258         2.511372        -0.670157
 H        -2.959204         2.830603         1.109054
 H        -1.170988         1.609866        -1.064089
 H        -0.553173         2.703441         0.233089
 H        -1.343682        -1.634708         0.380485
