19
Iteration:  1323
 O         0.623202         0.193625         0.531382
 C        -0.766743         0.640215         0.771330
 C        -1.309229         0.736290         2.267440
 C        -2.541617        -0.029235         1.733559
 C        -3.376133         0.722301         0.508337
 C        -2.747386         2.094415         0.213485
 C        -1.185933         1.945123         0.136697
 O        -2.800654        -0.284952        -0.462659
 C        -1.739494        -0.527162         0.416405
 H         1.270417         0.755120         1.115410
 H        -0.791086         0.098074         2.913121
 H        -1.307807         1.727179         2.513142
 H        -3.051948        -0.892467         2.273867
 H        -4.465558         0.674673         0.428625
 H        -3.301674         2.608861        -0.687932
 H        -3.010291         2.709543         1.181227
 H        -0.894214         1.886034        -0.880017
 H        -0.616419         2.793350         0.585747
 H        -1.370880        -1.572730         0.321001
