19
Iteration:  1146charge 0 multiplicity 1
 O         0.618512         0.331772         0.411432
 C        -0.764596         0.579018         0.802714
 C        -1.229446         0.630217         2.279260
 C        -2.603914         0.103603         1.684239
 C        -3.341406         0.767847         0.426596
 C        -2.761351         2.082330         0.138213
 C        -1.215472         1.867143         0.203488
 O        -2.731872        -0.326502        -0.405243
 C        -1.802586        -0.604552         0.594810
 H         1.132613         1.069020         0.685757
 H        -0.608331         0.022342         2.886540
 H        -1.188427         1.578261         2.773753
 H        -3.345787        -0.442174         2.455575
 H        -4.427700         0.688613         0.388201
 H        -3.158305         2.439295        -0.873153
 H        -3.205666         2.837048         0.850298
 H        -0.750931         1.869477        -0.812832
 H        -0.781618         2.721644         0.769976
 H        -1.600219        -1.666229         0.654779
