19
Iteration:  2536
 O         0.641687         0.319447         0.836483
 C        -0.752175         0.663414         0.702515
 C        -1.235389         0.703070         2.084995
 C        -2.501471        -0.073249         1.718442
 C        -3.314002         0.709149         0.601610
 C        -2.761998         2.099880         0.294361
 C        -1.245651         1.908727        -0.101383
 O        -2.916225        -0.264549        -0.435873
 C        -1.724123        -0.579691         0.388621
 H         0.984766         0.171464         0.008372
 H        -0.737701         0.013544         2.792700
 H        -1.412522         1.619724         2.602149
 H        -3.169763        -0.489188         2.547345
 H        -4.365769         0.689889         0.843859
 H        -3.185201         2.545331        -0.578560
 H        -2.715294         2.604531         1.260864
 H        -1.122738         1.825433        -1.206355
 H        -0.557514         2.846736         0.214364
 H        -1.286293        -1.565765         0.278337
