19
Iteration:   273charge 0 multiplicity 1
 O         0.490486         0.292656         0.405388
 C        -0.772992         0.663300         0.869425
 C        -1.267183         0.603242         2.338899
 C        -2.594709         0.023086         1.717931
 C        -3.270603         0.683750         0.453929
 C        -2.658398         2.033201         0.011460
 C        -1.163623         1.999216         0.113143
 O        -2.776021        -0.277490        -0.398054
 C        -1.785702        -0.588037         0.597287
 H         0.998595         1.066510         0.628794
 H        -0.893697        -0.132311         3.123338
 H        -1.333558         1.486200         3.030443
 H        -3.260485        -0.532895         2.336105
 H        -4.285066         0.670014         0.622681
 H        -3.010064         2.413665        -0.870359
 H        -3.030568         2.869669         0.755400
 H        -0.632193         1.826809        -0.805912
 H        -0.908306         3.038302         0.616941
 H        -1.295508        -1.652237         0.647939
