19
Iteration:  4619charge 0 multiplicity 1
 O         0.667147         0.287936         0.684509
 C        -0.738243         0.584299         0.736032
 C        -1.390880         0.750112         2.294039
 C        -2.597227        -0.113850         1.657247
 C        -3.320507         0.738133         0.535170
 C        -2.703194         2.157303         0.355406
 C        -1.164653         1.934078         0.016310
 O        -2.806589        -0.283208        -0.510759
 C        -1.755037        -0.599185         0.443328
 H         0.723389         0.239115        -0.385007
 H        -0.708086         0.312555         3.093876
 H        -1.746756         1.822623         2.463625
 H        -3.265409        -0.875746         2.164624
 H        -4.418751         0.838161         0.576610
 H        -3.082658         2.889348        -0.407889
 H        -2.895200         2.723203         1.299446
 H        -1.160575         1.699334        -1.009893
 H        -0.381703         2.684159         0.244000
 H        -1.168827        -1.508124         0.173485
