19
Iteration:  1215charge 0 multiplicity 1
 O         0.669557         0.311616         0.811609
 C        -0.745681         0.627708         0.723597
 C        -1.281576         0.741433         2.134352
 C        -2.502706        -0.052613         1.674425
 C        -3.306679         0.729834         0.574218
 C        -2.704347         2.068962         0.369405
 C        -1.223608         1.804645        -0.127493
 O        -2.861703        -0.240422        -0.488718
 C        -1.868630        -0.583221         0.407956
 H         1.141689         1.238828         0.662862
 H        -0.648091         0.163972         2.828265
 H        -1.334254         1.662725         2.696939
 H        -3.272326        -0.541633         2.284586
 H        -4.418557         0.627731         0.739995
 H        -3.230399         2.697372        -0.400406
 H        -2.809014         2.609807         1.232863
 H        -1.248087         1.631134        -1.164582
 H        -0.533389         2.660093         0.087591
 H        -1.350659        -1.620315         0.226684
