19
Iteration:   679
 O         0.576331         0.340454         0.572044
 C        -0.760838         0.647467         0.832061
 C        -1.416855         0.716389         2.229245
 C        -2.603884        -0.059037         1.717461
 C        -3.335396         0.734175         0.533786
 C        -2.622581         2.098871         0.186419
 C        -1.145120         1.890484        -0.005680
 O        -2.780932        -0.328577        -0.400230
 C        -1.713501        -0.535547         0.548308
 H         0.641939         0.576791        -0.422185
 H        -0.870082        -0.025458         2.896961
 H        -1.457688         1.775405         2.653572
 H        -3.120131        -0.768643         2.357167
 H        -4.428653         0.755390         0.493986
 H        -2.972859         2.473863        -0.753127
 H        -2.918841         2.793378         1.071261
 H        -0.962758         1.513636        -0.993708
 H        -0.549342         2.739608         0.367788
 H        -1.284679        -1.622245         0.523425
