19
Iteration:  3460
 O         0.563624         0.333795         0.468473
 C        -0.796972         0.547036         0.857922
 C        -1.292595         0.617220         2.309896
 C        -2.549527        -0.077327         1.734163
 C        -3.343590         0.757863         0.530760
 C        -2.731300         2.155851         0.151222
 C        -1.117995         1.905177         0.085706
 O        -2.748230        -0.263126        -0.445639
 C        -1.805015        -0.579593         0.496214
 H         0.994016         1.204906         0.517659
 H        -0.716594        -0.062615         2.937330
 H        -1.555884         1.516791         2.988313
 H        -3.188609        -0.745600         2.442751
 H        -4.419267         0.787148         0.383243
 H        -3.133360         2.527436        -0.815718
 H        -2.921732         2.891413         0.977453
 H        -1.021513         1.854325        -0.987838
 H        -0.517705         2.827301         0.240859
 H        -1.297244        -1.537695         0.394947
