19
Iteration:  2991charge 0 multiplicity 1
 O         0.554047         0.298936         0.541659
 C        -0.775443         0.662595         0.811469
 C        -1.342281         0.642754         2.246327
 C        -2.528073        -0.026202         1.727642
 C        -3.270212         0.691594         0.541559
 C        -2.666763         2.124645         0.185433
 C        -1.130977         1.882380         0.048706
 O        -2.871522        -0.290679        -0.455188
 C        -1.778160        -0.562752         0.517291
 H         1.120466         1.062785         0.724574
 H        -0.541996         0.026831         2.807387
 H        -1.446762         1.555868         2.890512
 H        -3.313992        -0.786644         2.200213
 H        -4.389931         0.765568         0.564147
 H        -3.092283         2.519891        -0.788843
 H        -2.915880         2.820256         0.991442
 H        -0.955064         1.939448        -1.019574
 H        -0.709573         2.752820         0.499507
 H        -1.152657        -1.460723         0.241622
