19
Iteration:  3425
 O         0.638973         0.163953         0.554869
 C        -0.734125         0.599149         0.733554
 C        -1.281699         0.749991         2.185304
 C        -2.596822         0.019532         1.732595
 C        -3.407411         0.757342         0.486006
 C        -2.808546         2.103515         0.328504
 C        -1.209115         1.915942         0.101462
 O        -2.712907        -0.266804        -0.478937
 C        -1.737908        -0.564481         0.456858
 H         1.218568         0.971016         0.754322
 H        -0.841173        -0.046178         2.816710
 H        -1.368315         1.720965         2.731569
 H        -3.078349        -0.675153         2.447127
 H        -4.505302         0.648553         0.500332
 H        -3.178591         2.575560        -0.567992
 H        -3.186525         2.741853         1.187827
 H        -0.966236         1.768416        -0.982858
 H        -0.777000         2.821038         0.609478
 H        -1.199774        -1.544092         0.426963
