19
Iteration:   586charge 0 multiplicity 1
 O         0.565645         0.331887         0.556064
 C        -0.757308         0.612987         0.791034
 C        -1.337705         0.673219         2.299668
 C        -2.608744         0.033788         1.681503
 C        -3.293586         0.732337         0.437160
 C        -2.684925         2.111332         0.220092
 C        -1.214786         1.905105         0.033869
 O        -2.695710        -0.350616        -0.430959
 C        -1.739799        -0.506130         0.614298
 H         0.404861        -0.157384        -0.288338
 H        -0.869015        -0.133621         2.835619
 H        -1.385228         1.605902         2.829852
 H        -3.284294        -0.592533         2.286216
 H        -4.429666         0.776672         0.444257
 H        -3.106784         2.547871        -0.700174
 H        -2.914779         2.733504         1.036470
 H        -1.019626         1.841257        -1.113397
 H        -0.685070         2.732007         0.524712
 H        -1.355742        -1.488322         0.652070
