19
Iteration:  3654charge 0 multiplicity 1
 O         0.571822         0.280875         0.563523
 C        -0.812647         0.665688         0.813247
 C        -1.409297         0.718440         2.239120
 C        -2.564145        -0.058883         1.686470
 C        -3.320893         0.756074         0.619583
 C        -2.668768         2.098051         0.328488
 C        -1.241981         1.743980        -0.120968
 O        -2.724858        -0.175489        -0.494387
 C        -1.709226        -0.560684         0.500351
 H         1.117006         1.023983         0.879318
 H        -0.752401         0.031393         2.763017
 H        -1.425890         1.672834         2.741130
 H        -3.076104        -0.780213         2.359132
 H        -4.467648         0.616510         0.653060
 H        -3.121385         2.575441        -0.519307
 H        -2.706524         2.588423         1.336962
 H        -1.084962         1.479810        -1.210751
 H        -0.559998         2.568691         0.238525
 H        -1.129123        -1.498754         0.289685
