19
Iteration:  3164
 O         0.567274         0.198235         0.550742
 C        -0.728683         0.632954         0.769231
 C        -1.335238         0.651554         2.199431
 C        -2.605346         0.000417         1.693722
 C        -3.352574         0.702558         0.500121
 C        -2.738204         2.063451         0.230828
 C        -1.115940         1.969512         0.149063
 O        -2.780309        -0.281034        -0.481087
 C        -1.739635        -0.484870         0.516307
 H         1.065445         0.996482         0.472924
 H        -0.696273         0.052328         2.876604
 H        -1.401979         1.722936         2.547707
 H        -3.234730        -0.736511         2.311338
 H        -4.412333         0.639147         0.714704
 H        -3.342265         2.424883        -0.605671
 H        -2.859832         2.826992         1.010699
 H        -0.791112         1.887062        -0.908483
 H        -0.702759         2.863810         0.790784
 H        -1.205499        -1.472288         0.402340
