19
Iteration:  3123
 O         0.625969         0.376169         0.561700
 C        -0.765196         0.591291         0.848757
 C        -1.282177         0.549154         2.308105
 C        -2.626581         0.010526         1.685794
 C        -3.339469         0.712151         0.574751
 C        -2.686443         2.101800         0.230390
 C        -1.184729         1.777278        -0.030026
 O        -2.768990        -0.184318        -0.488841
 C        -1.801244        -0.558439         0.494535
 H         1.108991         1.300367         0.479328
 H        -0.863646        -0.178528         2.987107
 H        -1.421176         1.553722         2.639894
 H        -3.411732        -0.556049         2.381574
 H        -4.442177         0.638054         0.396863
 H        -3.099641         2.634115        -0.691644
 H        -2.821756         2.803468         1.035099
 H        -0.887862         1.745214        -1.087805
 H        -0.616254         2.699382         0.250350
 H        -1.400696        -1.602260         0.532593
