19
Iteration:  2177
 O         0.599054         0.236284         0.483401
 C        -0.708768         0.634775         0.801632
 C        -1.243272         0.692096         2.267182
 C        -2.551123         0.062400         1.718723
 C        -3.312385         0.767995         0.624831
 C        -2.739434         2.010741         0.148948
 C        -1.229332         1.967945         0.154314
 O        -2.815281        -0.353897        -0.478542
 C        -1.799767        -0.541556         0.461082
 H         1.163083         0.949754         0.434692
 H        -0.697486        -0.104426         2.874471
 H        -1.410909         1.655406         2.719799
 H        -3.261929        -0.626749         2.340650
 H        -4.452836         0.804220         0.694145
 H        -3.097586         2.095531        -0.860243
 H        -3.151391         2.814719         0.746128
 H        -0.754724         2.230177        -0.888026
 H        -0.914894         2.837968         0.741464
 H        -1.327812        -1.600045         0.432198
