19
Iteration:   296charge 0 multiplicity 1
 O         0.640040         0.244426         0.537449
 C        -0.792095         0.661275         0.787469
 C        -1.288265         0.685800         2.281568
 C        -2.586324        -0.045150         1.738268
 C        -3.362274         0.754522         0.603957
 C        -2.767663         2.124012         0.117853
 C        -1.203358         1.886524         0.032090
 O        -2.780970        -0.302142        -0.435128
 C        -1.721795        -0.493400         0.458117
 H         1.112166         0.643740         1.329740
 H        -0.705945        -0.027167         2.899579
 H        -1.370634         1.542499         2.971965
 H        -3.176080        -0.734568         2.347553
 H        -4.401062         0.673797         0.574841
 H        -3.109512         2.130011        -0.870416
 H        -3.073682         3.170439         0.482156
 H        -0.871771         1.682156        -0.980294
 H        -0.631684         2.769883         0.453821
 H        -1.232744        -1.497012         0.354762
