19
Iteration:  2498
 O         0.658441         0.331013         0.613322
 C        -0.729787         0.638537         0.824436
 C        -1.340525         0.668635         2.196827
 C        -2.560772        -0.054417         1.746836
 C        -3.350656         0.698751         0.563906
 C        -2.702004         2.079034         0.257117
 C        -1.223034         1.787556        -0.044996
 O        -2.810990        -0.189732        -0.440411
 C        -1.741632        -0.559833         0.500402
 H         0.850573         0.757831        -0.274417
 H        -0.722520         0.198977         2.965172
 H        -1.557083         1.741358         2.557779
 H        -3.080101        -0.550390         2.516141
 H        -4.480970         0.666068         0.610305
 H        -3.237929         2.755065        -0.474150
 H        -2.906736         2.675719         1.170056
 H        -1.129566         1.405406        -1.100872
 H        -0.650477         2.741347         0.127527
 H        -1.235927        -1.438985         0.045285
