19
Iteration:   167charge 0 multiplicity 1
 O         0.710092         0.478381         0.813021
 C        -0.714697         0.594077         0.752249
 C        -1.298189         0.699335         2.177654
 C        -2.597797        -0.071961         1.683950
 C        -3.357233         0.717317         0.566637
 C        -2.636137         2.036482         0.285081
 C        -1.199966         1.771820        -0.078709
 O        -2.889546        -0.185386        -0.469788
 C        -1.837932        -0.586160         0.425447
 H         0.958678         0.088590        -0.124813
 H        -0.677493         0.091768         2.817826
 H        -1.361947         1.721476         2.583402
 H        -3.160321        -0.769466         2.342557
 H        -4.501493         0.808142         0.651501
 H        -3.264116         2.558685        -0.482405
 H        -2.668040         2.645063         1.153818
 H        -1.083130         1.529493        -1.181749
 H        -0.565414         2.615018         0.036988
 H        -1.477317        -1.584505         0.409289
