19
Iteration:   672charge 0 multiplicity 1
 O         0.603547         0.320522         0.650181
 C        -0.756680         0.665844         0.814704
 C        -1.347658         0.702721         2.232586
 C        -2.564551        -0.070309         1.679532
 C        -3.301552         0.752160         0.545686
 C        -2.692646         2.057618         0.163119
 C        -1.164882         1.894842        -0.054825
 O        -2.820106        -0.299784        -0.413668
 C        -1.760078        -0.543993         0.564440
 H         0.889343         0.652020        -0.177094
 H        -0.885819        -0.002010         2.865532
 H        -1.448035         1.641451         2.733800
 H        -3.259380        -0.781398         2.294373
 H        -4.359840         0.842733         0.691495
 H        -3.208322         2.594947        -0.763578
 H        -2.753859         2.678039         1.037222
 H        -0.992388         1.513844        -1.093118
 H        -0.608154         2.750502         0.270291
 H        -1.227504        -1.414896         0.457440
