19
Iteration:   890
 O         0.602297         0.281694         0.646923
 C        -0.719308         0.649001         0.755831
 C        -1.267468         0.615285         2.264900
 C        -2.528441         0.031161         1.727273
 C        -3.312753         0.710054         0.537944
 C        -2.735767         2.067722         0.136738
 C        -1.219808         1.914578        -0.018289
 O        -2.893940        -0.284375        -0.466940
 C        -1.740762        -0.534024         0.490876
 H         1.270780         0.976969         0.806764
 H        -0.738963        -0.162527         2.863464
 H        -1.164562         1.568009         2.903262
 H        -3.277053        -0.572245         2.405707
 H        -4.359364         0.678309         0.704834
 H        -3.231655         2.491319        -0.681060
 H        -2.922270         2.640182         1.002364
 H        -0.869615         2.001012        -1.074504
 H        -0.749116         2.801009         0.571132
 H        -1.379840        -1.514229         0.307159
