19
Iteration:  2098
 O         0.736313         0.258162         0.773834
 C        -0.749293         0.623426         0.743276
 C        -1.274196         0.779071         2.172236
 C        -2.502284        -0.091949         1.720277
 C        -3.354841         0.708347         0.606084
 C        -2.717934         2.053577         0.256535
 C        -1.304749         1.844265        -0.163452
 O        -2.883781        -0.217829        -0.496871
 C        -1.801241        -0.530057         0.463171
 H         1.216902         1.021418         0.553804
 H        -0.662133         0.234405         2.942801
 H        -1.501147         1.844874         2.534490
 H        -3.092129        -0.936392         2.263014
 H        -4.475974         0.770254         0.746895
 H        -3.350889         2.726359        -0.146793
 H        -2.627900         2.472288         1.253648
 H        -1.102338         1.676555        -1.234142
 H        -0.700596         2.693071         0.205075
 H        -1.266333        -1.478255         0.308544
