19
Iteration:  3611charge 0 multiplicity 1
 O         0.600466         0.241234         0.627478
 C        -0.707927         0.596954         0.723946
 C        -1.253110         0.732127         2.179044
 C        -2.500244        -0.002313         1.692219
 C        -3.362125         0.735078         0.557877
 C        -2.750523         2.063476         0.215676
 C        -1.194925         1.930432         0.085127
 O        -2.865239        -0.284020        -0.460302
 C        -1.742252        -0.532661         0.438617
 H         1.177904         0.833925         0.973022
 H        -0.822777        -0.064209         2.750505
 H        -1.370846         1.593991         2.812451
 H        -3.092444        -0.572834         2.455488
 H        -4.509751         0.819204         0.548779
 H        -3.339921         2.291307        -0.645062
 H        -2.958028         2.829234         1.005039
 H        -0.885447         1.798013        -0.944534
 H        -0.808263         2.766893         0.713188
 H        -1.395893        -1.577104         0.376480
