19
Iteration:   838
 O         0.484658         0.230021         0.415848
 C        -0.793746         0.654825         0.844997
 C        -1.335313         0.755972         2.327000
 C        -2.555004        -0.039960         1.717893
 C        -3.289608         0.712882         0.533996
 C        -2.711853         2.078117         0.120651
 C        -1.141477         1.949996         0.100419
 O        -2.712437        -0.270655        -0.442080
 C        -1.722042        -0.568699         0.569576
 H         1.234188         0.946335         0.580133
 H        -0.746327         0.023068         2.884266
 H        -1.606263         1.602695         2.905759
 H        -3.308275        -0.738861         2.267601
 H        -4.421402         0.685649         0.529846
 H        -3.319690         2.308342        -0.889364
 H        -3.061240         2.739632         0.932473
 H        -0.842031         1.687481        -0.941128
 H        -0.685711         2.748943         0.578641
 H        -1.383901        -1.557804         0.429869
