19
Iteration:  1310charge 0 multiplicity 1
 O         0.586956         0.117884         0.537885
 C        -0.687590         0.617816         0.781888
 C        -1.243955         0.778646         2.206261
 C        -2.535880         0.022384         1.635692
 C        -3.289213         0.638730         0.482098
 C        -2.843379         2.059377         0.280455
 C        -1.181321         2.019199         0.180565
 O        -2.814433        -0.249769        -0.530531
 C        -1.787189        -0.585795         0.514156
 H         1.228869         0.730233         0.905206
 H        -0.751513         0.311905         3.024546
 H        -1.490613         1.764159         2.660865
 H        -3.244344        -0.436497         2.419505
 H        -4.344437         0.562503         0.652723
 H        -3.167937         2.465534        -0.698225
 H        -3.270669         2.829241         1.091795
 H        -0.870243         2.188823        -0.863957
 H        -0.746490         2.850377         0.777874
 H        -1.255866        -1.458411         0.364457
