19
Iteration:  4620charge 0 multiplicity 1
 O         0.674970         0.286124         0.682466
 C        -0.742428         0.582252         0.751642
 C        -1.396406         0.745000         2.294444
 C        -2.594909        -0.115734         1.649786
 C        -3.323945         0.730917         0.539360
 C        -2.700331         2.156197         0.346101
 C        -1.170238         1.930047         0.003134
 O        -2.805820        -0.278699        -0.513601
 C        -1.747787        -0.582873         0.446247
 H         0.752751         0.235749        -0.402148
 H        -0.733441         0.264886         3.124851
 H        -1.741071         1.826807         2.470888
 H        -3.284778        -0.853600         2.218118
 H        -4.437357         0.820575         0.624703
 H        -3.088778         2.916046        -0.402904
 H        -2.883261         2.730808         1.332094
 H        -1.205766         1.713241        -1.019352
 H        -0.355011         2.674803         0.240473
 H        -1.189156        -1.486931         0.184950
