19
Iteration:  1470charge 0 multiplicity 1
 O         0.659651         0.449800         0.516761
 C        -0.721932         0.549320         0.795485
 C        -1.270557         0.566631         2.302051
 C        -2.602835         0.047514         1.661115
 C        -3.387485         0.778813         0.510161
 C        -2.713055         2.098220         0.199460
 C        -1.206286         1.839352         0.125144
 O        -2.797666        -0.236409        -0.453829
 C        -1.792183        -0.597045         0.465916
 H         0.898228        -0.320723         0.951296
 H        -0.823573        -0.179610         2.969602
 H        -1.317333         1.417338         2.756381
 H        -3.172037        -0.482812         2.419788
 H        -4.505143         0.796833         0.444973
 H        -3.007882         2.599448        -0.765921
 H        -2.955226         2.913767         0.884666
 H        -0.864819         1.749145        -0.956726
 H        -0.697784         2.705345         0.488072
 H        -1.388643        -1.683354         0.520013
