19
Iteration:  1090charge 0 multiplicity 1
 O         0.599582         0.218554         0.709126
 C        -0.795680         0.670412         0.753035
 C        -1.359554         0.787725         2.259051
 C        -2.453990        -0.185098         1.719622
 C        -3.306451         0.669055         0.630149
 C        -2.684749         2.119138         0.281694
 C        -1.234051         1.866668        -0.164664
 O        -2.820412        -0.163072        -0.466330
 C        -1.756381        -0.560000         0.407229
 H         1.005403         1.122114         1.096973
 H        -0.586917         0.311874         2.825429
 H        -1.669581         1.808238         2.288240
 H        -2.996501        -0.869779         2.567459
 H        -4.366439         0.615047         0.795842
 H        -3.329585         2.380934        -0.583812
 H        -2.751035         2.967135         0.984983
 H        -1.120005         1.419700        -1.226501
 H        -0.597718         2.752190         0.001662
 H        -1.340300        -1.499564         0.170911
