19
Iteration:  3810charge 0 multiplicity 1
 O         0.631135         0.368715         0.678405
 C        -0.768122         0.607692         0.766349
 C        -1.354583         0.632864         2.201370
 C        -2.600716        -0.115195         1.697635
 C        -3.303757         0.782899         0.594648
 C        -2.679777         2.120494         0.282161
 C        -1.150226         1.815216        -0.068385
 O        -2.807375        -0.224386        -0.484344
 C        -1.807001        -0.560987         0.522211
 H         1.052579         0.943680         0.036625
 H        -0.876974        -0.019757         2.892784
 H        -1.534336         1.600171         2.688501
 H        -3.017915        -0.810553         2.515235
 H        -4.427512         0.605718         0.535629
 H        -3.264694         2.614776        -0.472213
 H        -2.715813         2.938235         1.036214
 H        -1.032463         1.547443        -1.132845
 H        -0.436545         2.669447         0.082827
 H        -1.333049        -1.479693         0.202737
