19
Iteration:  1021charge 0 multiplicity 1
 O         0.589321         0.386519         0.411303
 C        -0.778218         0.553904         0.827779
 C        -1.276333         0.615610         2.296826
 C        -2.641918         0.044920         1.736801
 C        -3.286706         0.727391         0.540635
 C        -2.680908         2.063572         0.065485
 C        -1.169591         1.923306         0.172376
 O        -2.809890        -0.294731        -0.400862
 C        -1.751161        -0.594618         0.558971
 H         0.995544         1.203279         0.338949
 H        -0.807883        -0.246504         2.801965
 H        -1.424939         1.657496         2.649474
 H        -3.272840        -0.601917         2.293381
 H        -4.321365         0.675149         0.354865
 H        -3.050037         2.255828        -0.907797
 H        -3.008568         2.991892         0.717063
 H        -0.724487         1.761920        -0.824025
 H        -0.802056         2.745013         0.836367
 H        -1.411945        -1.607629         0.622350
