19
Iteration:  1053
 O         0.635110         0.255520         0.625322
 C        -0.771298         0.644012         0.789005
 C        -1.291750         0.703303         2.201130
 C        -2.576475         0.028529         1.700146
 C        -3.367226         0.684290         0.519603
 C        -2.729191         2.100662         0.314937
 C        -1.242033         1.860874        -0.048183
 O        -2.798047        -0.298380        -0.457925
 C        -1.735862        -0.536970         0.481256
 H         1.209204         1.125383         0.738742
 H        -0.615679         0.118767         2.859783
 H        -1.235954         1.644178         2.791768
 H        -3.110834        -0.643474         2.256879
 H        -4.426671         0.664481         0.322181
 H        -3.239671         2.641922        -0.478635
 H        -2.721488         2.834835         1.310073
 H        -1.159866         1.546847        -1.090935
 H        -0.632301         2.781011         0.017441
 H        -1.272964        -1.536837         0.535399
