19
Iteration:  2774charge 0 multiplicity 1
 O         0.643758         0.278368         0.635817
 C        -0.735948         0.648025         0.735309
 C        -1.252931         0.612920         2.235676
 C        -2.529217        -0.038200         1.722610
 C        -3.380409         0.695289         0.517347
 C        -2.767574         2.127983         0.228442
 C        -1.250787         1.843579         0.022401
 O        -2.866568        -0.246263        -0.453188
 C        -1.742849        -0.490791         0.446693
 H         1.161565         1.158180         0.939485
 H        -0.647365        -0.169377         2.823883
 H        -1.119671         1.524220         2.928847
 H        -3.123380        -0.532463         2.417173
 H        -4.505540         0.567398         0.633075
 H        -3.103752         2.523777        -0.795851
 H        -2.809887         2.859176         1.044262
 H        -0.961307         1.794823        -1.073242
 H        -0.501291         2.765649         0.341358
 H        -1.290118        -1.480689         0.350754
