19
Iteration:  3861
 O         0.612335         0.245090         0.537911
 C        -0.772656         0.596045         0.760628
 C        -1.322663         0.657088         2.253647
 C        -2.608442        -0.015371         1.709917
 C        -3.312430         0.751029         0.547877
 C        -2.716493         2.082364         0.204418
 C        -1.155462         2.005168         0.043621
 O        -2.791701        -0.283716        -0.424791
 C        -1.769028        -0.607325         0.512754
 H         1.024982         0.975388         0.936837
 H        -0.574087         0.031361         2.793549
 H        -1.536427         1.694805         2.632182
 H        -3.164799        -0.775793         2.229678
 H        -4.397792         0.641034         0.594680
 H        -3.095395         2.498389        -0.761878
 H        -2.907884         2.879657         0.984878
 H        -0.771628         2.095252        -0.961762
 H        -0.750277         2.913976         0.489304
 H        -1.447303        -1.657065         0.293444
