19
Iteration:  4352charge 0 multiplicity 1
 O         0.674517         0.287279         0.560148
 C        -0.759635         0.628394         0.779371
 C        -1.344569         0.662768         2.208862
 C        -2.564516        -0.058428         1.734660
 C        -3.331219         0.733981         0.497284
 C        -2.703743         2.126735         0.315156
 C        -1.188207         1.845009        -0.024734
 O        -2.823768        -0.258907        -0.456022
 C        -1.811759        -0.555970         0.496013
 H         1.213778         0.921116         1.138015
 H        -0.680282         0.158392         2.921354
 H        -1.410511         1.659704         2.691792
 H        -3.170098        -0.702216         2.441513
 H        -4.411466         0.771622         0.581854
 H        -3.232205         2.654934        -0.506776
 H        -2.972166         2.873646         1.031071
 H        -1.014844         1.734885        -1.091673
 H        -0.643039         2.699265         0.273646
 H        -1.224041        -1.506968         0.205697
