19
Iteration:  2880charge 0 multiplicity 1
 O         0.628667         0.248335         0.532011
 C        -0.711303         0.594539         0.782039
 C        -1.319021         0.664211         2.245187
 C        -2.535688        -0.021135         1.726407
 C        -3.328332         0.712706         0.571232
 C        -2.735536         2.083648         0.162615
 C        -1.204460         1.927690         0.141233
 O        -2.839487        -0.228164        -0.504449
 C        -1.787659        -0.566683         0.489762
 H         1.109425         1.174680         0.569290
 H        -0.701568         0.048401         2.940802
 H        -1.501992         1.729139         2.612397
 H        -3.048362        -0.781133         2.458431
 H        -4.419795         0.689003         0.710064
 H        -3.161307         2.331231        -0.794115
 H        -2.978023         2.930230         0.837757
 H        -0.953448         2.004384        -0.905904
 H        -0.663299         2.642170         0.695138
 H        -1.222111        -1.522364         0.444998
