19
Iteration:  3688charge 0 multiplicity 1
 O         0.735898         0.322073         0.646916
 C        -0.714454         0.589568         0.771766
 C        -1.305217         0.674872         2.220953
 C        -2.547467         0.014663         1.669412
 C        -3.368932         0.773008         0.501813
 C        -2.724500         2.142042         0.264857
 C        -1.258984         1.857959         0.023236
 O        -2.837226        -0.291291        -0.491841
 C        -1.825169        -0.636798         0.536828
 H         1.291366         1.033694         0.078629
 H        -0.792148        -0.095546         2.748714
 H        -1.259381         1.570683         2.851432
 H        -3.251364        -0.676315         2.253497
 H        -4.515406         0.636388         0.634648
 H        -3.247192         2.736503        -0.448722
 H        -3.060976         2.798870         1.154561
 H        -1.013988         1.679381        -1.069803
 H        -0.688827         2.731568         0.492837
 H        -1.278196        -1.580259         0.393453
