19
Iteration:  1350
 O         0.619997         0.413627         0.605536
 C        -0.793392         0.681130         0.796726
 C        -1.359591         0.556290         2.288243
 C        -2.605351        -0.061483         1.718662
 C        -3.238505         0.747860         0.602978
 C        -2.659291         2.082214         0.246255
 C        -1.163010         1.835924        -0.104270
 O        -2.823870        -0.170134        -0.480874
 C        -1.800986        -0.630991         0.469229
 H         1.196740         1.063468         1.156061
 H        -0.725639        -0.283180         2.769762
 H        -1.302718         1.571444         2.922429
 H        -3.278817        -0.742335         2.156751
 H        -4.358015         0.728189         0.680843
 H        -3.347411         2.537882        -0.462391
 H        -2.844963         2.763269         1.023329
 H        -1.124107         1.326491        -1.138848
 H        -0.451447         2.644616        -0.200929
 H        -1.436703        -1.716003         0.319930
