19
Iteration:  4761
 O         0.647763         0.388738         0.715186
 C        -0.735273         0.631138         0.819095
 C        -1.268681         0.627131         2.257231
 C        -2.644626         0.023188         1.658782
 C        -3.343154         0.712075         0.491412
 C        -2.677729         2.071896         0.332530
 C        -1.228905         1.745682         0.002398
 O        -2.804055        -0.146632        -0.548326
 C        -1.763219        -0.534932         0.466339
 H         0.832698         0.041007        -0.173488
 H        -0.867532        -0.125028         2.921709
 H        -1.383799         1.561893         2.814340
 H        -3.056111        -0.825265         2.227371
 H        -4.444509         0.637004         0.487582
 H        -3.236279         2.694066        -0.365001
 H        -2.609388         2.590285         1.286629
 H        -1.085856         1.475775        -1.150753
 H        -0.609774         2.663102         0.203159
 H        -1.473740        -1.574337         0.186840
