19
Iteration:  3602
 O         0.613659         0.247892         0.620476
 C        -0.688469         0.620645         0.689104
 C        -1.208650         0.630336         2.183617
 C        -2.537751         0.068802         1.667671
 C        -3.382707         0.695018         0.537544
 C        -2.729474         2.044152         0.184437
 C        -1.237456         1.950580         0.112963
 O        -2.835723        -0.226315        -0.414363
 C        -1.829827        -0.568144         0.522624
 H         1.063506         0.967169         0.905514
 H        -0.714607        -0.031650         2.848323
 H        -1.216377         1.652125         2.659514
 H        -3.114499        -0.756610         2.250005
 H        -4.445335         0.470519         0.450540
 H        -3.040756         2.291292        -0.821135
 H        -3.027045         2.685361         1.022437
 H        -0.821376         2.143048        -0.880229
 H        -0.660405         2.820685         0.495520
 H        -1.476437        -1.571573         0.431839
