19
Iteration:  1851
 O         0.717804         0.316755         0.743238
 C        -0.673616         0.609828         0.801537
 C        -1.230687         0.696276         2.220705
 C        -2.548470        -0.060011         1.632771
 C        -3.358578         0.729375         0.531866
 C        -2.769941         2.083406         0.299106
 C        -1.205184         1.936104         0.073678
 O        -2.921427        -0.222740        -0.544126
 C        -1.807457        -0.574210         0.418039
 H         0.890480        -0.117907        -0.187651
 H        -0.628707        -0.073494         2.883007
 H        -1.190643         1.773893         2.762222
 H        -3.147479        -0.720089         2.293524
 H        -4.454640         0.833184         0.629471
 H        -3.137667         2.210049        -0.783599
 H        -3.049808         2.754083         1.102793
 H        -1.103670         1.927474        -1.030692
 H        -0.808221         2.782030         0.611275
 H        -1.358806        -1.602955         0.242899
