19
Iteration:  4919
 O         0.626411         0.327572         0.835587
 C        -0.684976         0.665681         0.734147
 C        -1.296139         0.596582         2.249222
 C        -2.567048        -0.120575         1.605123
 C        -3.388993         0.763431         0.668410
 C        -2.769319         2.084894         0.194848
 C        -1.154393         1.840463        -0.082933
 O        -2.876735        -0.155755        -0.457997
 C        -1.717309        -0.520682         0.385102
 H         1.073425         0.510791         0.014323
 H        -0.662811        -0.171500         2.750474
 H        -1.278968         1.455690         2.969192
 H        -3.209534        -0.727413         2.222624
 H        -4.438545         0.601243         0.893820
 H        -3.195698         2.391681        -0.754030
 H        -2.847369         2.861625         0.991456
 H        -0.933608         1.660681        -1.154328
 H        -0.507682         2.772979         0.177932
 H        -1.434822        -1.502125         0.245333
