19
Iteration:   368charge 0 multiplicity 1
 O         0.668978         0.453134         0.541014
 C        -0.781708         0.650029         0.802928
 C        -1.335158         0.610661         2.390485
 C        -2.597762        -0.029092         1.747609
 C        -3.294071         0.731358         0.536583
 C        -2.662944         2.046405         0.177301
 C        -1.204072         1.796549        -0.121006
 O        -2.775661        -0.194835        -0.502255
 C        -1.865725        -0.568320         0.543887
 H         1.045233         0.022940         1.282801
 H        -0.797798        -0.171697         2.969298
 H        -1.303227         1.469443         3.093448
 H        -3.331677        -0.577962         2.311764
 H        -4.430028         0.667640         0.582331
 H        -3.214574         2.592390        -0.656091
 H        -2.725078         2.732284         1.027315
 H        -1.068371         1.465315        -1.121668
 H        -0.637272         2.677191         0.108245
 H        -1.307432        -1.536256         0.278523
