19
Iteration:  3099
 O         0.675447         0.249044         0.731841
 C        -0.729659         0.613578         0.772284
 C        -1.307312         0.686881         2.163473
 C        -2.519608        -0.045571         1.678642
 C        -3.313215         0.731745         0.554026
 C        -2.767797         2.085139         0.312253
 C        -1.236475         1.805606        -0.036809
 O        -2.842093        -0.151314        -0.493845
 C        -1.780360        -0.560226         0.484134
 H         1.181223         1.026222         0.670498
 H        -0.633998         0.038630         2.664062
 H        -1.410486         1.703226         2.622417
 H        -3.284675        -0.727702         2.245510
 H        -4.365439         0.715363         0.387144
 H        -3.208877         2.638418        -0.535925
 H        -3.003776         2.669805         1.206109
 H        -1.155382         1.630068        -1.128836
 H        -0.679838         2.821885        -0.021021
 H        -1.294006        -1.573930         0.388298
