19
Iteration:   853charge 0 multiplicity 1
 O         0.558887         0.156760         0.415623
 C        -0.755158         0.646866         0.790915
 C        -1.400939         0.782351         2.296200
 C        -2.535327        -0.041047         1.744214
 C        -3.257545         0.672390         0.563771
 C        -2.718376         2.005352         0.121333
 C        -1.179026         1.986699         0.144415
 O        -2.788367        -0.248200        -0.449421
 C        -1.755435        -0.554414         0.511411
 H         1.155849         0.812915         0.684675
 H        -0.901153         0.295451         3.148981
 H        -1.518735         1.869036         2.493363
 H        -3.055801        -0.600618         2.387964
 H        -4.394554         0.653567         0.663046
 H        -3.083935         2.241823        -0.891112
 H        -3.089177         2.905744         0.714818
 H        -0.581857         2.336510        -0.707614
 H        -0.896936         2.797260         0.970995
 H        -1.118590        -1.524267         0.436823
