19
Iteration:  4534charge 0 multiplicity 1
 O         0.609171         0.418867         0.689096
 C        -0.786222         0.581737         0.774368
 C        -1.341394         0.628876         2.159374
 C        -2.576286        -0.095580         1.721064
 C        -3.332712         0.720883         0.543294
 C        -2.568081         2.097793         0.276904
 C        -1.173292         1.835754        -0.010927
 O        -2.792968        -0.207755        -0.491336
 C        -1.857215        -0.573818         0.507814
 H         0.742351         0.777507        -0.125839
 H        -0.755665         0.023150         2.861172
 H        -1.435167         1.454266         2.823366
 H        -3.229122        -0.790776         2.262751
 H        -4.449940         0.793889         0.577654
 H        -2.975374         2.476056        -0.666065
 H        -2.765778         2.714673         1.196001
 H        -0.973752         1.927488        -1.082711
 H        -0.583296         2.723518         0.385536
 H        -1.386347        -1.509654         0.382071
