19
Iteration:  2976charge 0 multiplicity 1
 O         0.583486         0.228742         0.603728
 C        -0.744145         0.663550         0.763493
 C        -1.374077         0.738172         2.257831
 C        -2.530091        -0.158783         1.648621
 C        -3.308210         0.745698         0.581382
 C        -2.663715         2.055065         0.243084
 C        -1.179995         1.969610        -0.003995
 O        -2.855412        -0.250312        -0.394980
 C        -1.719878        -0.545728         0.418046
 H         1.154323         0.960932         0.523195
 H        -0.948777         0.174590         3.025447
 H        -1.727247         1.702678         2.387088
 H        -3.049793        -0.758597         2.342072
 H        -4.360735         0.835649         0.681227
 H        -3.202235         2.493616        -0.558698
 H        -2.886772         2.753197         1.101444
 H        -0.883054         1.588010        -0.992781
 H        -0.535552         2.842762         0.376544
 H        -1.344772        -1.549724         0.309829
