19
Iteration:  2152charge 0 multiplicity 1
 O         0.556559         0.329147         0.340176
 C        -0.710505         0.576593         0.810167
 C        -1.297781         0.695850         2.372335
 C        -2.588447        -0.032665         1.768413
 C        -3.414074         0.702852         0.510379
 C        -2.727926         2.103055         0.131638
 C        -1.158322         1.853776         0.070569
 O        -2.725058        -0.208960        -0.396738
 C        -1.750439        -0.603590         0.598566
 H         1.192964         0.983472         0.564586
 H        -0.854419        -0.035083         3.055264
 H        -1.680170         1.730680         2.710659
 H        -3.231115        -0.770967         2.373789
 H        -4.524023         0.630183         0.482637
 H        -3.025520         2.397431        -0.829946
 H        -3.096000         2.922250         0.738725
 H        -0.772010         1.963379        -0.920882
 H        -0.576335         2.607294         0.649324
 H        -1.341845        -1.589519         0.368985
