19
Iteration:  3442
 O         0.610497         0.249356         0.485887
 C        -0.705129         0.638612         0.811380
 C        -1.278284         0.628011         2.277173
 C        -2.605827         0.070131         1.666209
 C        -3.312826         0.664996         0.490249
 C        -2.743055         2.074050         0.241999
 C        -1.264565         1.898754         0.104340
 O        -2.766975        -0.225903        -0.506178
 C        -1.771276        -0.534809         0.583487
 H         1.170654         1.027686         0.588109
 H        -0.782752        -0.137493         2.894161
 H        -1.116727         1.616103         2.731715
 H        -3.329168        -0.387486         2.331389
 H        -4.424200         0.605824         0.448381
 H        -3.163433         2.466768        -0.719605
 H        -2.896845         2.643637         1.149815
 H        -0.983340         1.824040        -0.986478
 H        -0.708752         2.574659         0.749871
 H        -1.465902        -1.573512         0.469471
