19
Iteration:  4432
 O         0.721205         0.412505         0.637223
 C        -0.735736         0.578058         0.751603
 C        -1.317262         0.619370         2.294403
 C        -2.607058         0.081310         1.729228
 C        -3.432729         0.693293         0.501885
 C        -2.619820         2.069669         0.207866
 C        -1.159332         1.875517         0.127017
 O        -2.904703        -0.300226        -0.473361
 C        -1.779781        -0.601382         0.400617
 H         1.092328         0.849442        -0.224282
 H        -0.850448        -0.165102         2.851430
 H        -1.174188         1.621872         2.671953
 H        -3.182512        -0.529167         2.413622
 H        -4.495058         0.875268         0.514585
 H        -3.109149         2.571921        -0.652741
 H        -2.860662         2.621010         1.096050
 H        -0.906633         1.798329        -0.900707
 H        -0.674519         2.726076         0.544071
 H        -1.459205        -1.642889         0.352741
