19
Iteration:  1698charge 0 multiplicity 1
 O         0.661433         0.338798         0.539305
 C        -0.757602         0.562042         0.797823
 C        -1.221873         0.614429         2.233963
 C        -2.575416         0.027403         1.683891
 C        -3.333699         0.699136         0.500359
 C        -2.773081         2.103509         0.212186
 C        -1.278588         1.774633         0.096030
 O        -2.808200        -0.162578        -0.500750
 C        -1.772006        -0.537382         0.533970
 H         1.270274         0.854944         1.240555
 H        -0.953173        -0.244032         2.891103
 H        -1.140850         1.487260         2.758665
 H        -3.334817        -0.474912         2.271261
 H        -4.416697         0.546259         0.648874
 H        -3.031706         2.805297        -0.667955
 H        -2.924072         2.767719         1.101628
 H        -0.954624         1.707420        -1.039454
 H        -0.641267         2.716844         0.423727
 H        -1.354663        -1.596270         0.483940
