19
Iteration:  4507
 O         0.696036         0.247311         0.755302
 C        -0.695326         0.575562         0.807285
 C        -1.305498         0.753422         2.189516
 C        -2.525315         0.007968         1.633756
 C        -3.329888         0.705496         0.488825
 C        -2.737358         2.148330         0.428834
 C        -1.249612         1.864506        -0.049188
 O        -2.826994        -0.277515        -0.504168
 C        -1.784711        -0.538398         0.393804
 H         0.867980         0.258551        -0.129435
 H        -0.969577         0.122313         3.071334
 H        -1.511472         1.831529         2.609707
 H        -3.288316        -0.581061         2.180600
 H        -4.410206         0.633386         0.564739
 H        -3.331655         2.692505        -0.351844
 H        -2.879668         2.579717         1.412443
 H        -1.248631         1.902838        -1.153500
 H        -0.696990         2.704658         0.313641
 H        -1.271602        -1.551771         0.191108
