19
Iteration:  4217
 O         0.611640         0.437069         0.699539
 C        -0.677271         0.585349         0.803854
 C        -1.260610         0.632601         2.253682
 C        -2.572893        -0.113258         1.693932
 C        -3.308989         0.729867         0.511582
 C        -2.691691         2.089134         0.247480
 C        -1.168550         1.836788         0.003934
 O        -2.882053        -0.183267        -0.440827
 C        -1.812640        -0.616699         0.404816
 H         0.965368         0.849392        -0.179409
 H        -0.631100        -0.053669         2.911363
 H        -1.653862         1.585292         2.666840
 H        -3.268478        -0.652845         2.343551
 H        -4.458545         0.845075         0.568457
 H        -3.194234         2.578596        -0.554229
 H        -2.694935         2.818879         1.086072
 H        -1.086361         1.540286        -1.065026
 H        -0.594656         2.688782         0.189902
 H        -1.519153        -1.669294         0.305843
