19
Iteration:  4557charge 0 multiplicity 1
 O         0.669836         0.378362         0.677649
 C        -0.744385         0.564326         0.869819
 C        -1.275530         0.490619         2.290243
 C        -2.541742         0.008724         1.723900
 C        -3.357506         0.788007         0.552330
 C        -2.746983         2.125028         0.059209
 C        -1.202557         1.874523         0.076080
 O        -2.861301        -0.141043        -0.490621
 C        -1.740812        -0.631968         0.474150
 H         0.959877         0.836531        -0.235497
 H        -0.761687        -0.282300         2.887095
 H        -1.300521         1.298614         2.977251
 H        -3.241641        -0.739797         2.109327
 H        -4.453721         0.682529         0.780165
 H        -3.121023         2.407500        -0.916479
 H        -3.057062         2.809421         0.902591
 H        -1.109214         1.566586        -0.986299
 H        -0.667587         2.869990         0.105965
 H        -1.243917        -1.556325         0.280297
