19
Iteration:  2089charge 0 multiplicity 1
 O         0.682008         0.304666         0.769451
 C        -0.717290         0.626782         0.742104
 C        -1.307731         0.739343         2.182584
 C        -2.510697        -0.088005         1.715371
 C        -3.283530         0.664830         0.624044
 C        -2.716033         2.048600         0.268114
 C        -1.214472         1.830237        -0.134894
 O        -2.947448        -0.163934        -0.503988
 C        -1.780530        -0.567820         0.447349
 H         1.155357         1.030408         0.455463
 H        -0.627268         0.554887         3.032874
 H        -1.647934         1.689862         2.467589
 H        -3.105223        -0.839143         2.406647
 H        -4.363535         0.665820         0.981143
 H        -3.308426         2.550392        -0.501758
 H        -2.767602         2.583638         1.222121
 H        -1.125978         1.626260        -1.289625
 H        -0.657240         2.750934         0.048512
 H        -1.318523        -1.600719         0.232249
