19
Iteration:  2313
 O         0.641588         0.270929         0.581307
 C        -0.756067         0.624407         0.782917
 C        -1.340087         0.719757         2.208041
 C        -2.458184        -0.111888         1.691605
 C        -3.259503         0.690446         0.684965
 C        -2.776972         2.004004         0.101821
 C        -1.148108         1.972832         0.122595
 O        -2.892312        -0.201891        -0.418905
 C        -1.779781        -0.537696         0.455903
 H         0.824783         0.488860        -0.292329
 H        -0.807442         0.189229         2.943314
 H        -1.623159         1.742092         2.504959
 H        -3.057419        -0.719699         2.248655
 H        -4.329981         0.681833         0.777006
 H        -3.178119         2.208608        -0.944824
 H        -3.199210         2.898383         0.640068
 H        -0.540784         2.008579        -0.818067
 H        -0.979662         2.845458         0.860091
 H        -1.246990        -1.478681         0.351232
