19
Iteration:   962charge 0 multiplicity 1
 O         0.590091         0.226212         0.670996
 C        -0.781363         0.689138         0.741732
 C        -1.245258         0.693805         2.166520
 C        -2.560928        -0.017262         1.682949
 C        -3.367599         0.687688         0.554115
 C        -2.704887         2.092910         0.244557
 C        -1.196166         1.943924         0.036307
 O        -2.858420        -0.292297        -0.476627
 C        -1.696487        -0.563017         0.509046
 H         1.080928         1.063535         0.389799
 H        -0.586980         0.118179         2.776963
 H        -1.443902         1.526796         2.780651
 H        -3.064313        -0.627297         2.397735
 H        -4.483784         0.579887         0.441285
 H        -3.229357         2.505931        -0.703710
 H        -2.918353         2.844460         1.155851
 H        -0.906551         1.813992        -0.985115
 H        -0.681442         2.826434         0.348917
 H        -1.219778        -1.612403         0.502302
