19
Iteration:  4870charge 0 multiplicity 1
 O         0.566315         0.391616         0.616567
 C        -0.824147         0.565699         0.809780
 C        -1.367697         0.699618         2.145156
 C        -2.590501        -0.021421         1.655798
 C        -3.313178         0.768184         0.509312
 C        -2.649293         2.126529         0.358683
 C        -1.186735         1.861697         0.112548
 O        -2.721795        -0.251793        -0.549387
 C        -1.765396        -0.654132         0.530004
 H         0.412757         0.243480        -0.412976
 H        -0.983638         0.062227         2.916255
 H        -1.308682         1.663015         2.614954
 H        -3.059242        -0.678165         2.455798
 H        -4.427277         0.735236         0.523746
 H        -3.171079         2.615430        -0.480968
 H        -2.639405         2.723476         1.252092
 H        -0.739364         1.630179        -0.890140
 H        -0.488049         2.582951         0.439360
 H        -1.121852        -1.649829         0.488433
