19
Iteration:  2148charge 0 multiplicity 1
 O         0.522892         0.331913         0.356101
 C        -0.697881         0.576826         0.816224
 C        -1.282981         0.705297         2.404148
 C        -2.600671        -0.032648         1.775575
 C        -3.420396         0.738786         0.501764
 C        -2.701796         2.101537         0.168126
 C        -1.166688         1.833938         0.021596
 O        -2.693240        -0.237482        -0.407207
 C        -1.768145        -0.614395         0.555836
 H         1.197526         1.034654         0.641552
 H        -0.739816         0.027317         3.047949
 H        -1.653969         1.652810         2.784048
 H        -3.141546        -0.716361         2.318370
 H        -4.484596         0.628361         0.473760
 H        -3.193535         2.533658        -0.838901
 H        -3.085204         2.957491         0.823004
 H        -0.800384         1.919180        -0.996911
 H        -0.729004         2.660991         0.645928
 H        -1.355057        -1.610673         0.431717
