19
Iteration:  4375
 O         0.573464         0.219345         0.537989
 C        -0.801125         0.691971         0.840230
 C        -1.437173         0.713721         2.310165
 C        -2.542595        -0.064798         1.679536
 C        -3.316967         0.684343         0.621822
 C        -2.686744         1.977701         0.281297
 C        -1.175312         1.812550        -0.078924
 O        -2.766523        -0.100191        -0.472169
 C        -1.693432        -0.498482         0.442623
 H         1.282700         0.935215         0.602414
 H        -0.742479         0.272055         3.014039
 H        -1.556270         1.706127         2.792120
 H        -3.192945        -0.892281         2.088337
 H        -4.382881         0.698723         0.763257
 H        -3.317683         2.565479        -0.432214
 H        -2.750437         2.796616         0.958173
 H        -0.960143         1.419298        -1.042804
 H        -0.574687         2.687132         0.039942
 H        -1.254029        -1.584696         0.437203
