19
Iteration:  3392charge 0 multiplicity 1
 O         0.561413         0.248176         0.623775
 C        -0.798405         0.718684         0.733920
 C        -1.417173         0.701180         2.259120
 C        -2.502075        -0.135545         1.707344
 C        -3.316664         0.769913         0.662996
 C        -2.656114         2.062891         0.301774
 C        -1.186659         1.839130        -0.057777
 O        -2.805000        -0.223978        -0.495482
 C        -1.731368        -0.542461         0.403108
 H         1.060567         1.023805         1.107576
 H        -0.696419         0.134800         2.910810
 H        -1.529511         1.689693         2.829141
 H        -3.049414        -0.844058         2.348363
 H        -4.421399         0.922024         0.564952
 H        -3.058416         2.430653        -0.619841
 H        -2.787188         2.738927         1.199804
 H        -0.970153         1.525300        -1.116551
 H        -0.518972         2.753480         0.140793
 H        -1.210804        -1.417012        -0.108302
