19
Iteration:  1171
 O         0.535779         0.218640         0.451651
 C        -0.792803         0.636375         0.804608
 C        -1.338853         0.688772         2.315546
 C        -2.615258         0.008302         1.781975
 C        -3.281567         0.703460         0.554008
 C        -2.754900         2.072976         0.157015
 C        -1.153191         1.920823         0.093124
 O        -2.732854        -0.228325        -0.503943
 C        -1.693423        -0.569462         0.556584
 H         1.143902         1.030317         0.264813
 H        -0.645128         0.240807         3.021127
 H        -1.471944         1.643329         2.792829
 H        -3.207116        -0.615508         2.445573
 H        -4.412858         0.659833         0.476370
 H        -3.277940         2.228479        -0.818570
 H        -3.043415         2.764228         0.814111
 H        -0.798738         1.801646        -0.886749
 H        -0.677029         2.827800         0.534014
 H        -1.273109        -1.650942         0.472388
