19
Iteration:  1100
 O         0.557521         0.276968         0.688564
 C        -0.778239         0.648575         0.752060
 C        -1.312471         0.720609         2.171122
 C        -2.486664        -0.164818         1.723162
 C        -3.281905         0.710746         0.637255
 C        -2.699346         2.104002         0.195378
 C        -1.207489         1.862210        -0.092515
 O        -2.870340        -0.210008        -0.450376
 C        -1.715517        -0.542607         0.477716
 H         1.182688         0.950432         1.080384
 H        -0.765581         0.302462         3.006761
 H        -1.517981         1.702162         2.640081
 H        -3.113045        -0.907797         2.372160
 H        -4.338165         0.761358         0.800447
 H        -3.196971         2.469777        -0.715138
 H        -2.960012         2.892128         1.026522
 H        -1.121193         1.660418        -1.229001
 H        -0.567542         2.737119         0.102543
 H        -1.196259        -1.394610         0.170976
