19
Iteration:   337
 O         0.656123         0.370987         0.719891
 C        -0.770857         0.584626         0.700883
 C        -1.346078         0.803992         2.140245
 C        -2.534953        -0.054057         1.652042
 C        -3.372635         0.680204         0.581758
 C        -2.602824         2.168954         0.388656
 C        -1.244426         1.797434        -0.102782
 O        -2.839299        -0.291857        -0.508507
 C        -1.807775        -0.630509         0.464454
 H         0.936567         0.516211         1.705979
 H        -0.826844         0.185649         2.981025
 H        -1.344078         1.907784         2.452978
 H        -3.062152        -0.626981         2.358628
 H        -4.463088         0.594995         0.662591
 H        -3.031787         2.842197        -0.328125
 H        -2.580821         2.709538         1.372930
 H        -1.385929         1.541109        -1.153388
 H        -0.414583         2.715888        -0.110114
 H        -1.120811        -1.548242         0.202500
