19
Iteration:  2193charge 0 multiplicity 1
 O         0.575151         0.217190         0.651407
 C        -0.778824         0.677224         0.694148
 C        -1.194171         0.664708         2.229969
 C        -2.484056        -0.054110         1.730141
 C        -3.370105         0.653579         0.479716
 C        -2.771339         2.106550         0.127383
 C        -1.143505         2.020178         0.090152
 O        -2.917420        -0.303213        -0.402843
 C        -1.751600        -0.542236         0.498213
 H         1.113531         1.011030         0.348877
 H        -0.595626        -0.086037         2.702646
 H        -1.087947         1.636343         2.770889
 H        -2.929660        -0.651722         2.443436
 H        -4.414556         0.552997         0.640427
 H        -3.276015         2.600439        -0.812731
 H        -3.105566         2.907210         0.881550
 H        -0.811365         2.024188        -0.916623
 H        -0.675272         2.833738         0.732336
 H        -1.201478        -1.456783         0.472472
