19
Iteration:  4243charge 0 multiplicity 1
 O         0.721643         0.276837         0.691385
 C        -0.658561         0.559098         0.686502
 C        -1.311988         0.727474         2.193385
 C        -2.606062         0.039293         1.663711
 C        -3.364854         0.712849         0.502350
 C        -2.778264         2.079619         0.393086
 C        -1.229826         1.840400         0.004180
 O        -2.819291        -0.287980        -0.502333
 C        -1.796078        -0.493980         0.474050
 H         1.223303         1.085303         0.180233
 H        -0.789797        -0.135223         2.658263
 H        -1.502564         1.590698         2.861841
 H        -3.281223        -0.602531         2.311135
 H        -4.423600         0.679854         0.733547
 H        -3.178082         2.808119        -0.421955
 H        -2.704760         2.562680         1.384318
 H        -1.247399         1.765484        -1.103441
 H        -0.589084         2.755360         0.297889
 H        -1.370474        -1.598385         0.501290
