19
Iteration:  3440
 O         0.620623         0.243620         0.491417
 C        -0.707913         0.629608         0.817154
 C        -1.273149         0.633516         2.259156
 C        -2.607408         0.070440         1.653038
 C        -3.325606         0.656561         0.501637
 C        -2.737914         2.073853         0.248130
 C        -1.281048         1.889443         0.112209
 O        -2.764223        -0.231388        -0.508412
 C        -1.766438        -0.522078         0.580568
 H         1.168537         0.955308         0.591104
 H        -0.760473        -0.102910         2.863700
 H        -1.141188         1.655131         2.781373
 H        -3.368742        -0.336672         2.378481
 H        -4.390488         0.614398         0.396327
 H        -3.156574         2.476645        -0.712123
 H        -2.833593         2.686669         1.131150
 H        -1.059267         1.948038        -0.956649
 H        -0.703320         2.571352         0.703492
 H        -1.439168        -1.529537         0.462745
