19
Iteration:  1237
 O         0.712161         0.471336         0.694757
 C        -0.742031         0.576072         0.781950
 C        -1.347067         0.581038         2.170102
 C        -2.606247        -0.080470         1.694411
 C        -3.371569         0.753271         0.547722
 C        -2.649392         2.107015         0.318905
 C        -1.187946         1.757088        -0.138905
 O        -2.868583        -0.175315        -0.444003
 C        -1.780823        -0.637175         0.476827
 H         1.020289         1.324216         0.738912
 H        -0.642787         0.027777         2.809937
 H        -1.287197         1.562581         2.642052
 H        -3.234114        -0.621626         2.453618
 H        -4.503350         0.877457         0.562684
 H        -3.188059         2.734523        -0.459501
 H        -2.676217         2.755787         1.113160
 H        -1.114592         1.476994        -1.152240
 H        -0.421630         2.550424         0.044489
 H        -1.604692        -1.791779         0.460043
