19
Iteration:  3988
 O         0.647818         0.404964         0.702610
 C        -0.783751         0.575141         0.736639
 C        -1.227667         0.615017         2.192488
 C        -2.533767        -0.027325         1.664751
 C        -3.332798         0.683287         0.522582
 C        -2.729214         2.101443         0.242605
 C        -1.210784         1.874672         0.024752
 O        -2.855900        -0.192364        -0.494740
 C        -1.818450        -0.562370         0.547161
 H         0.950647        -0.114217         0.025162
 H        -0.704290        -0.076121         2.890230
 H        -1.325525         1.521243         2.726000
 H        -3.203345        -0.535600         2.319351
 H        -4.412888         0.837616         0.509231
 H        -3.114582         2.595800        -0.656455
 H        -2.723146         2.756024         1.082936
 H        -0.933099         1.729132        -1.052311
 H        -0.609011         2.629376         0.563664
 H        -1.336722        -1.541994         0.533172
