19
Iteration:   200charge 0 multiplicity 1
 O         0.601711         0.391986         0.865539
 C        -0.751602         0.683368         0.762198
 C        -1.344277         0.661370         2.196030
 C        -2.504941        -0.133159         1.626899
 C        -3.268511         0.725981         0.655105
 C        -2.620006         2.108371         0.276521
 C        -1.269465         1.829080        -0.205007
 O        -2.859777        -0.186339        -0.438861
 C        -1.754902        -0.545302         0.406672
 H         0.812163        -0.271282         0.298262
 H        -0.532090         0.191321         2.707409
 H        -1.537925         1.611503         2.692742
 H        -3.092657        -0.903640         2.191363
 H        -4.445407         0.768281         0.695833
 H        -3.381312         2.527498        -0.493926
 H        -2.615128         2.822056         1.066339
 H        -1.437218         1.243512        -1.169266
 H        -0.543493         2.581771        -0.338544
 H        -1.307932        -1.491663         0.350463
