19
Iteration:  2664charge 0 multiplicity 1
 O         0.599638         0.379029         0.674153
 C        -0.793727         0.632319         0.717370
 C        -1.378601         0.662019         2.255753
 C        -2.513707        -0.099230         1.712366
 C        -3.251517         0.734540         0.578810
 C        -2.659336         2.070582         0.283376
 C        -1.170711         1.797589        -0.097671
 O        -2.878100        -0.172670        -0.432405
 C        -1.744437        -0.596690         0.445665
 H         1.140778         1.205373         0.522921
 H        -0.701862        -0.001748         2.865881
 H        -1.564223         1.606657         2.861122
 H        -3.041389        -0.720140         2.376469
 H        -4.342896         0.702225         0.759854
 H        -3.228954         2.468772        -0.609282
 H        -2.792018         2.925878         0.944066
 H        -1.251998         1.420652        -1.109489
 H        -0.585452         2.605858         0.036227
 H        -1.409072        -1.613290         0.176223
