19
Iteration:  3410charge 0 multiplicity 1
 O         0.562896         0.196033         0.596383
 C        -0.745608         0.634132         0.796924
 C        -1.324828         0.712901         2.240391
 C        -2.514827        -0.081800         1.646363
 C        -3.259801         0.627691         0.548314
 C        -2.756115         2.106252         0.271503
 C        -1.201237         1.954321         0.013664
 O        -2.818229        -0.194602        -0.488149
 C        -1.755773        -0.549479         0.505989
 H         1.306344         0.852464         0.873705
 H        -0.699123         0.283493         3.033518
 H        -1.503372         1.752086         2.478281
 H        -3.174995        -0.666638         2.237772
 H        -4.380655         0.605743         0.578053
 H        -3.367422         2.668761        -0.477004
 H        -2.845438         2.722812         1.180412
 H        -1.045560         2.032996        -1.095144
 H        -0.450527         2.776808         0.266526
 H        -1.433525        -1.593057         0.348143
