19
Iteration:  4013
 O         0.632554         0.246182         0.601154
 C        -0.762832         0.564974         0.815472
 C        -1.287229         0.702270         2.267489
 C        -2.600965         0.016915         1.702820
 C        -3.320956         0.688169         0.533161
 C        -2.769385         2.115578         0.280049
 C        -1.274730         1.931321         0.047421
 O        -2.699402        -0.172169        -0.517941
 C        -1.735033        -0.596496         0.519861
 H         0.673650        -0.041396        -0.295959
 H        -0.573427         0.053399         2.848484
 H        -1.411224         1.583818         2.884014
 H        -3.356983        -0.498301         2.288096
 H        -4.356779         0.774075         0.392292
 H        -3.264750         2.465291        -0.687822
 H        -2.835439         2.866460         1.053534
 H        -1.341732         1.645669        -1.017621
 H        -0.575331         2.818223         0.282018
 H        -1.245060        -1.606860         0.368884
