19
Iteration:  1306
 O         0.571902         0.102444         0.537694
 C        -0.689267         0.609181         0.799496
 C        -1.245520         0.779361         2.178839
 C        -2.536021         0.017814         1.641881
 C        -3.286019         0.652496         0.500866
 C        -2.823094         2.054242         0.295545
 C        -1.203194         2.025162         0.167434
 O        -2.802614        -0.243528        -0.540521
 C        -1.768782        -0.572164         0.516304
 H         1.252403         0.773605         0.831235
 H        -0.738527         0.169817         3.045107
 H        -1.587386         1.806475         2.676156
 H        -3.193396        -0.262088         2.398794
 H        -4.390388         0.502261         0.633127
 H        -3.136122         2.465596        -0.623948
 H        -3.301897         2.725998         0.908130
 H        -0.895448         2.340065        -0.891297
 H        -0.837693         2.822745         0.811445
 H        -1.231610        -1.578096         0.478306
