19
Iteration:  4878charge 0 multiplicity 1
 O         0.552757         0.397834         0.652283
 C        -0.780530         0.535046         0.821110
 C        -1.296197         0.703160         2.205420
 C        -2.552610         0.024327         1.623476
 C        -3.342585         0.733267         0.503805
 C        -2.698458         2.135682         0.324532
 C        -1.171172         1.824414         0.078448
 O        -2.769691        -0.240359        -0.543424
 C        -1.757068        -0.659592         0.504108
 H         0.871377         0.198738        -0.260924
 H        -0.897553        -0.011420         2.917515
 H        -1.375067         1.764926         2.609653
 H        -3.201788        -0.644921         2.241336
 H        -4.444552         0.878671         0.519421
 H        -3.229731         2.854785        -0.363099
 H        -2.804449         2.604294         1.354091
 H        -0.954277         1.689239        -0.954562
 H        -0.524767         2.557494         0.504895
 H        -1.161228        -1.649738         0.396147
