19
Iteration:  3524
 O         0.645636         0.208534         0.724164
 C        -0.701998         0.578145         0.714717
 C        -1.301806         0.727204         2.167178
 C        -2.520886        -0.004725         1.595746
 C        -3.302386         0.744561         0.546239
 C        -2.778969         2.106200         0.370726
 C        -1.278480         1.877303        -0.036908
 O        -2.832932        -0.218942        -0.480828
 C        -1.706637        -0.573111         0.493596
 H         1.018210         1.124468         0.451142
 H        -0.763204         0.087602         2.841428
 H        -1.360820         1.733743         2.606806
 H        -3.213904        -0.587416         2.258590
 H        -4.396612         0.673868         0.607348
 H        -3.447175         2.683065        -0.212712
 H        -2.998475         2.597246         1.332071
 H        -1.210764         1.659163        -1.113335
 H        -0.489723         2.662982         0.146202
 H        -1.418886        -1.625706         0.410037
