19
Iteration:  2836charge 0 multiplicity 1
 O         0.563262         0.223037         0.583802
 C        -0.738865         0.723109         0.781385
 C        -1.304010         0.684762         2.273519
 C        -2.506708        -0.045016         1.683205
 C        -3.318204         0.697449         0.565473
 C        -2.713995         2.058398         0.322261
 C        -1.209365         1.872016        -0.026149
 O        -2.781035        -0.235104        -0.487423
 C        -1.784816        -0.499197         0.453117
 H         1.264841         0.970363         0.801432
 H        -0.804806        -0.024633         2.892115
 H        -1.598253         1.657692         2.590879
 H        -3.247433        -0.746857         2.220402
 H        -4.405572         0.695976         0.607075
 H        -3.161849         2.586141        -0.487493
 H        -2.880581         2.638399         1.251406
 H        -1.005275         1.535457        -1.033588
 H        -0.783427         2.804661         0.093157
 H        -1.356329        -1.510162         0.323582
