19
Iteration:  2994charge 0 multiplicity 1
 O         0.565750         0.311629         0.535009
 C        -0.787618         0.655686         0.800475
 C        -1.300708         0.651732         2.280901
 C        -2.556055        -0.032735         1.728252
 C        -3.287763         0.688458         0.539580
 C        -2.668929         2.127820         0.188357
 C        -1.140553         1.897130         0.045325
 O        -2.855234        -0.304214        -0.474491
 C        -1.789619        -0.556042         0.526297
 H         1.118522         1.034433         0.758008
 H        -0.531092        -0.143885         2.707584
 H        -1.408922         1.607633         2.911589
 H        -3.308464        -0.660354         2.212408
 H        -4.425376         0.776561         0.563022
 H        -3.129863         2.492346        -0.783262
 H        -2.962505         2.860667         0.936707
 H        -0.869272         1.819300        -1.031590
 H        -0.628047         2.678819         0.623697
 H        -1.228230        -1.459050         0.258246
