19
Iteration:  4869
 O         0.569961         0.387524         0.606085
 C        -0.824123         0.573138         0.803443
 C        -1.377807         0.695473         2.150899
 C        -2.601355        -0.033237         1.661711
 C        -3.304181         0.768669         0.510238
 C        -2.641620         2.122832         0.359477
 C        -1.182912         1.865156         0.111319
 O        -2.715704        -0.253090        -0.545776
 C        -1.769236        -0.640843         0.529457
 H         0.406632         0.257407        -0.369852
 H        -0.967504         0.067382         2.905714
 H        -1.315582         1.684911         2.623828
 H        -3.076740        -0.667627         2.485228
 H        -4.420843         0.697829         0.511918
 H        -3.155396         2.603017        -0.505711
 H        -2.649570         2.755164         1.249865
 H        -0.776405         1.655101        -0.879827
 H        -0.522644         2.580481         0.438197
 H        -1.151239        -1.679870         0.493545
