19
Iteration:  2460
 O         0.618235         0.404182         0.533808
 C        -0.757316         0.590631         0.788294
 C        -1.232601         0.614260         2.241598
 C        -2.577009         0.027192         1.788226
 C        -3.325295         0.735662         0.463262
 C        -2.762998         2.077251         0.159077
 C        -1.188219         1.898138         0.148406
 O        -2.787339        -0.285402        -0.451801
 C        -1.816148        -0.626343         0.546132
 H         0.717779         0.636039        -0.491697
 H        -0.716160        -0.216165         2.808058
 H        -1.218992         1.601740         2.652150
 H        -3.315922        -0.446508         2.564856
 H        -4.406098         0.646404         0.468033
 H        -3.205073         2.542009        -0.728676
 H        -2.858423         2.842993         0.992784
 H        -0.835808         1.869896        -0.853215
 H        -0.617872         2.740848         0.494317
 H        -1.298204        -1.605102         0.601149
