19
Iteration:  1143charge 0 multiplicity 1
 O         0.628006         0.331829         0.417513
 C        -0.726658         0.589371         0.794685
 C        -1.216703         0.618370         2.277233
 C        -2.635753         0.114427         1.725316
 C        -3.349755         0.769140         0.424163
 C        -2.767631         2.068620         0.123599
 C        -1.205375         1.877856         0.211512
 O        -2.766571        -0.333095        -0.429169
 C        -1.794250        -0.617629         0.594212
 H         1.214887         1.144433         0.764542
 H        -0.524141        -0.062068         2.870266
 H        -1.259751         1.660034         2.769156
 H        -3.318967        -0.473548         2.405321
 H        -4.408422         0.700755         0.299769
 H        -3.213958         2.490861        -0.789973
 H        -3.279891         2.944879         0.894803
 H        -0.744803         1.803355        -0.857430
 H        -0.735604         2.709323         0.736310
 H        -1.533471        -1.632010         0.714387
