19
Iteration:  4871
 O         0.562713         0.394808         0.624587
 C        -0.822769         0.559067         0.815606
 C        -1.358030         0.703186         2.141951
 C        -2.581373        -0.011354         1.651124
 C        -3.321516         0.766288         0.508702
 C        -2.656818         2.129726         0.356315
 C        -1.189901         1.856951         0.112073
 O        -2.727671        -0.250390        -0.551925
 C        -1.761353        -0.666162         0.529576
 H         0.434996         0.232378        -0.431946
 H        -0.990067         0.049397         2.930082
 H        -1.307400         1.652414         2.608620
 H        -3.046697        -0.680003         2.418105
 H        -4.427758         0.770814         0.531942
 H        -3.183339         2.631289        -0.455841
 H        -2.637998         2.697943         1.260420
 H        -0.717543         1.612780        -0.903549
 H        -0.450443         2.597065         0.449656
 H        -1.110958        -1.608062         0.482759
