19
Iteration:  3317
 O         0.574041         0.209732         0.463649
 C        -0.759517         0.659532         0.829032
 C        -1.356302         0.715227         2.291122
 C        -2.589565        -0.064516         1.714921
 C        -3.273128         0.714721         0.536798
 C        -2.688213         2.114088         0.254234
 C        -1.175254         1.922456         0.071590
 O        -2.748782        -0.264721        -0.467678
 C        -1.790978        -0.535124         0.443084
 H         1.118750         1.034976         0.579606
 H        -0.818743         0.119391         3.056047
 H        -1.651457         1.606787         2.953283
 H        -3.318781        -0.756857         2.249545
 H        -4.351159         0.593467         0.514069
 H        -3.139424         2.532683        -0.661890
 H        -3.110518         2.642075         1.143983
 H        -0.734704         1.936423        -0.894637
 H        -0.638198         2.734092         0.496747
 H        -1.338350        -1.570096         0.367756
