19
Iteration:   898
 O         0.592345         0.345133         0.656985
 C        -0.749621         0.616441         0.751486
 C        -1.237891         0.584950         2.283318
 C        -2.567702         0.020435         1.742206
 C        -3.297921         0.730245         0.545762
 C        -2.726270         2.048207         0.183726
 C        -1.224849         1.865961        -0.066147
 O        -2.840220        -0.258356        -0.456231
 C        -1.774122        -0.559343         0.461007
 H         1.088104         1.127401         0.829980
 H        -0.637299        -0.163910         2.816033
 H        -1.475728         1.439223         2.963528
 H        -3.232418        -0.430311         2.322937
 H        -4.378806         0.917538         0.612800
 H        -3.230205         2.576393        -0.577232
 H        -2.755549         2.768336         1.075900
 H        -0.968313         1.783784        -1.115907
 H        -0.591493         2.819655         0.132891
 H        -1.290411        -1.600032         0.345974
