19
Iteration:  3169
 O         0.600569         0.164228         0.569197
 C        -0.754798         0.641310         0.761750
 C        -1.300451         0.703807         2.200233
 C        -2.606527        -0.019231         1.693837
 C        -3.322577         0.709833         0.499994
 C        -2.763277         2.010532         0.222207
 C        -1.140284         1.962460         0.160283
 O        -2.779698        -0.253434        -0.499859
 C        -1.751835        -0.477729         0.512237
 H         1.164469         0.989173         0.534123
 H        -0.783180         0.004241         2.853659
 H        -1.437171         1.705724         2.552437
 H        -3.140320        -0.737854         2.303614
 H        -4.398250         0.826966         0.809888
 H        -3.377144         2.455446        -0.605751
 H        -2.983381         2.665711         1.086415
 H        -0.848340         2.112339        -0.901239
 H        -0.682494         2.812860         0.631798
 H        -1.346199        -1.473323         0.450296
