19
Iteration:  1152charge 0 multiplicity 1
 O         0.578205         0.311811         0.403839
 C        -0.799682         0.547216         0.828204
 C        -1.262264         0.665860         2.267284
 C        -2.561636         0.065817         1.665226
 C        -3.318698         0.736138         0.453374
 C        -2.742824         2.098324         0.123337
 C        -1.241112         1.878417         0.171897
 O        -2.694402        -0.300606        -0.393336
 C        -1.815075        -0.586907         0.600911
 H         1.134097         1.178862         0.627000
 H        -0.829021        -0.127560         3.002394
 H        -1.104910         1.672627         2.800406
 H        -3.221620        -0.329435         2.338674
 H        -4.419307         0.665764         0.550639
 H        -2.948349         2.334252        -0.891325
 H        -3.087210         2.824010         0.983015
 H        -0.796075         2.039045        -0.836010
 H        -0.823044         2.668867         0.795992
 H        -1.525533        -1.656198         0.567080
