19
Iteration:  1552charge 0 multiplicity 1
 O         0.622924         0.182774         0.600581
 C        -0.782749         0.613092         0.770309
 C        -1.313352         0.683428         2.252714
 C        -2.562500        -0.080070         1.733985
 C        -3.285611         0.717212         0.539371
 C        -2.810205         2.121969         0.232142
 C        -1.174293         1.875643        -0.002087
 O        -2.758777        -0.167642        -0.492064
 C        -1.788059        -0.522561         0.467876
 H         1.161953         0.990059         0.821654
 H        -0.657949         0.075741         2.854467
 H        -1.453676         1.680601         2.764287
 H        -3.143903        -0.756191         2.411972
 H        -4.362268         0.678418         0.640938
 H        -3.287593         2.544855        -0.653100
 H        -3.043200         2.607544         1.208525
 H        -0.948426         1.903306        -1.084712
 H        -0.675663         2.808613         0.527083
 H        -1.190456        -1.370908         0.272259
