19
Iteration:  2832charge 0 multiplicity 1
 O         0.566589         0.253630         0.565446
 C        -0.712507         0.716538         0.816912
 C        -1.330407         0.683097         2.260657
 C        -2.530891        -0.082395         1.658624
 C        -3.322995         0.705472         0.543901
 C        -2.694431         2.034437         0.321598
 C        -1.220188         1.868129        -0.031641
 O        -2.781729        -0.222598        -0.452923
 C        -1.774529        -0.516675         0.434842
 H         1.139178         0.925216         0.812591
 H        -0.693321         0.056129         3.000344
 H        -1.518880         1.763546         2.665311
 H        -3.285938        -0.660800         2.249380
 H        -4.421847         0.795490         0.591002
 H        -3.266564         2.638766        -0.436090
 H        -2.803762         2.671443         1.261406
 H        -1.136953         1.434975        -1.075412
 H        -0.537385         2.824899         0.131703
 H        -1.376020        -1.538677         0.373462
