19
Iteration:  4873
 O         0.556214         0.398446         0.633285
 C        -0.815982         0.548236         0.824297
 C        -1.339718         0.706769         2.143988
 C        -2.567760         0.004070         1.643815
 C        -3.334942         0.759278         0.508103
 C        -2.670712         2.133762         0.347991
 C        -1.191441         1.846170         0.106534
 O        -2.739072        -0.247469        -0.554014
 C        -1.754025        -0.683387         0.526057
 H         0.518136         0.222944        -0.385329
 H        -0.982282         0.015244         2.953049
 H        -1.317413         1.674663         2.608676
 H        -3.042220        -0.666916         2.335619
 H        -4.421841         0.830997         0.538745
 H        -3.203618         2.678257        -0.414483
 H        -2.658398         2.666869         1.298371
 H        -0.723052         1.602743        -0.922642
 H        -0.400977         2.623681         0.478214
 H        -1.126104        -1.524830         0.468627
