19
Iteration:  3806charge 0 multiplicity 1
 O         0.638157         0.367871         0.676991
 C        -0.779900         0.599652         0.786035
 C        -1.394858         0.645930         2.148665
 C        -2.593739        -0.103757         1.710986
 C        -3.291988         0.771679         0.562658
 C        -2.678762         2.156266         0.333271
 C        -1.146013         1.805402        -0.075648
 O        -2.799067        -0.235082        -0.469847
 C        -1.789845        -0.586774         0.531181
 H         0.893655         0.935599        -0.108087
 H        -0.732849         0.062100         2.848877
 H        -1.544686         1.575135         2.751462
 H        -3.034621        -0.831546         2.361265
 H        -4.394069         0.730041         0.482730
 H        -3.225340         2.669900        -0.472552
 H        -2.724007         3.000282         1.021119
 H        -1.108257         1.451369        -1.102893
 H        -0.533931         2.662069         0.181458
 H        -1.295796        -1.526845         0.200669
