19
Iteration:  4906
 O         0.792394         0.297698         0.793376
 C        -0.701887         0.684172         0.829048
 C        -1.308416         0.597021         2.156525
 C        -2.596892        -0.063601         1.699318
 C        -3.412574         0.717645         0.597357
 C        -2.744795         2.087327         0.244074
 C        -1.195754         1.908970        -0.060571
 O        -2.848909        -0.172083        -0.522714
 C        -1.825645        -0.573028         0.475454
 H         1.176644         0.290191        -0.176041
 H        -0.833686        -0.281798         2.654487
 H        -1.386007         1.483301         2.753719
 H        -3.074685        -0.770435         2.338361
 H        -4.475898         0.887442         0.526642
 H        -3.312037         2.505220        -0.570911
 H        -2.959960         2.823737         1.024350
 H        -1.204051         1.567935        -1.148592
 H        -0.695416         2.942893         0.134744
 H        -1.270916        -1.441898         0.285641
