19
Iteration:  2709
 O         0.630528         0.283264         0.493208
 C        -0.716499         0.596663         0.818828
 C        -1.297442         0.707080         2.230381
 C        -2.619402         0.013730         1.662756
 C        -3.317500         0.660358         0.520401
 C        -2.704511         2.099260         0.290286
 C        -1.247355         1.886843         0.050805
 O        -2.794029        -0.236253        -0.488115
 C        -1.742354        -0.604213         0.561736
 H         1.236102         1.088810         0.671150
 H        -0.779306         0.034533         2.984651
 H        -1.262359         1.708965         2.790824
 H        -3.262973        -0.477762         2.288132
 H        -4.419040         0.601290         0.446344
 H        -3.238249         2.701966        -0.535339
 H        -3.072726         2.758228         1.119437
 H        -1.167510         1.737577        -1.036810
 H        -0.692503         2.717459         0.467787
 H        -1.358211        -1.631234         0.530158
