19
Iteration:  4460charge 0 multiplicity 1
 O         0.606456         0.379023         0.639136
 C        -0.784021         0.628518         0.759214
 C        -1.362180         0.589706         2.295264
 C        -2.529414        -0.114261         1.723808
 C        -3.300592         0.765893         0.625812
 C        -2.656577         2.131230         0.125250
 C        -1.230656         1.884062         0.052981
 O        -2.791794        -0.176770        -0.476938
 C        -1.751260        -0.614382         0.457289
 H         0.908659         0.159402        -0.289319
 H        -0.731098        -0.106795         2.941935
 H        -1.526929         1.586523         2.810769
 H        -3.252035        -0.730536         2.360417
 H        -4.412646         0.920028         0.687572
 H        -3.191959         2.324638        -0.811266
 H        -2.886643         2.882470         0.920709
 H        -0.937861         1.704243        -1.053976
 H        -0.625383         2.774205         0.401967
 H        -1.376042        -1.678587         0.402583
