19
Iteration:  1749charge 0 multiplicity 1
 O         0.493426         0.220921         0.544524
 C        -0.811517         0.641587         0.775834
 C        -1.316237         0.688497         2.245107
 C        -2.538440        -0.091205         1.733900
 C        -3.293624         0.747320         0.559050
 C        -2.692057         2.083590         0.198458
 C        -1.113779         2.025374         0.190065
 O        -2.836054        -0.321834        -0.454010
 C        -1.687360        -0.563819         0.387813
 H         1.156767         0.910765         0.439926
 H        -0.732269         0.019102         2.876392
 H        -1.550707         1.749315         2.729370
 H        -3.177813        -0.732874         2.314469
 H        -4.368916         0.868765         0.468559
 H        -3.017177         2.296845        -0.790633
 H        -3.154248         2.933035         0.701059
 H        -0.706476         2.224829        -0.743442
 H        -0.650825         2.764731         0.754280
 H        -1.260207        -1.491700         0.156248
