19
Iteration:  4478
 O         0.589620         0.277577         0.737656
 C        -0.739299         0.644164         0.801941
 C        -1.234368         0.664670         2.217053
 C        -2.561056        -0.093003         1.730786
 C        -3.327850         0.673600         0.552978
 C        -2.798495         2.096181         0.258629
 C        -1.157083         1.879881        -0.083513
 O        -2.745088        -0.120859        -0.463553
 C        -1.784593        -0.512152         0.448766
 H         0.686857        -0.109336        -0.176120
 H        -0.778543        -0.150604         2.727283
 H        -1.377559         1.582145         2.699723
 H        -3.316476        -0.672806         2.228387
 H        -4.430128         0.570726         0.559005
 H        -3.438964         2.356937        -0.603694
 H        -3.089855         2.860006         1.026919
 H        -1.037738         1.840304        -1.137039
 H        -0.603906         2.719826         0.392736
 H        -1.262239        -1.422785         0.224126
