19
Iteration:  4267
 O         0.531389         0.220572         0.573579
 C        -0.797294         0.607507         0.807223
 C        -1.298681         0.751402         2.232877
 C        -2.554915        -0.115118         1.738300
 C        -3.303015         0.705651         0.515577
 C        -2.719079         2.106720         0.284656
 C        -1.224077         1.919008        -0.003391
 O        -2.718291        -0.205683        -0.492799
 C        -1.770086        -0.571646         0.521064
 H         1.075750         1.044246         0.465426
 H        -0.773152         0.016789         2.821121
 H        -1.357448         1.769067         2.681969
 H        -3.200105        -0.798002         2.372898
 H        -4.367479         0.700510         0.708860
 H        -3.146692         2.622896        -0.658979
 H        -2.770128         2.739163         1.212292
 H        -1.086307         1.695898        -1.062002
 H        -0.601605         2.900409         0.264478
 H        -1.154997        -1.463227         0.182217
