19
Iteration:   776charge 0 multiplicity 1
 O         0.693219         0.433988         0.828303
 C        -0.749795         0.542013         0.743271
 C        -1.368355         0.737773         2.138446
 C        -2.585682        -0.140203         1.743647
 C        -3.275541         0.732878         0.642970
 C        -2.628392         2.068137         0.256621
 C        -1.185783         1.792964        -0.090613
 O        -2.960406        -0.239096        -0.454414
 C        -1.779178        -0.561478         0.381983
 H         1.006599         1.052073         0.012974
 H        -0.568831         0.403639         2.867402
 H        -1.556437         1.803249         2.458118
 H        -3.084002        -0.787388         2.330068
 H        -4.424174         0.942607         0.708434
 H        -3.176753         2.452663        -0.565307
 H        -2.624836         2.800016         1.089805
 H        -1.164095         1.522255        -1.194757
 H        -0.271971         2.553314        -0.101307
 H        -1.368393        -1.614072         0.066504
