19
Iteration:   975charge 0 multiplicity 1
 O         0.576611         0.188209         0.632553
 C        -0.749127         0.657184         0.747390
 C        -1.267206         0.657439         2.241744
 C        -2.502265        -0.026144         1.706227
 C        -3.330662         0.730336         0.520041
 C        -2.805399         2.076650         0.132065
 C        -1.194140         2.022923         0.086132
 O        -2.804431        -0.325924        -0.398238
 C        -1.764714        -0.510403         0.479952
 H         1.218674         0.845879         0.291079
 H        -0.729938        -0.158212         2.692992
 H        -1.165244         1.633891         2.674721
 H        -3.097821        -0.607813         2.246922
 H        -4.391090         0.756619         0.690829
 H        -3.135370         2.333555        -0.869015
 H        -3.220907         2.939670         0.816403
 H        -0.923538         2.127824        -0.924507
 H        -0.783315         2.770715         0.779931
 H        -1.143209        -1.428434         0.329539
