19
Iteration:  1950charge 0 multiplicity 1
 O         0.700933         0.380007         0.885778
 C        -0.745787         0.652553         0.738804
 C        -1.243610         0.612962         2.078009
 C        -2.541527        -0.055775         1.714359
 C        -3.316667         0.752322         0.608212
 C        -2.740693         2.102246         0.318360
 C        -1.245998         1.824044        -0.174667
 O        -2.853924        -0.197690        -0.526555
 C        -1.849667        -0.640075         0.478056
 H         1.188626         0.634117         0.003159
 H        -0.586319        -0.044553         2.792780
 H        -1.335611         1.605466         2.753375
 H        -3.151203        -0.509051         2.505294
 H        -4.407904         0.724000         0.675943
 H        -3.493908         2.624011        -0.461686
 H        -2.709495         2.707685         1.251032
 H        -1.165824         1.590023        -1.265757
 H        -0.680309         2.714754         0.094964
 H        -1.378272        -1.626411         0.213300
