19
Iteration:   533charge 0 multiplicity 1
 O         0.609310         0.301461         0.732137
 C        -0.787099         0.632332         0.739082
 C        -1.304978         0.697805         2.229827
 C        -2.555873        -0.047400         1.705973
 C        -3.323525         0.714249         0.606156
 C        -2.730305         2.060470         0.090500
 C        -1.129835         1.923906         0.036254
 O        -2.850251        -0.253293        -0.420708
 C        -1.730223        -0.551602         0.457862
 H         0.831204         0.339032        -0.269076
 H        -0.625518         0.006922         2.848266
 H        -1.451266         1.722658         2.679219
 H        -3.212730        -0.621551         2.306577
 H        -4.457553         0.751273         0.748298
 H        -3.181547         2.281769        -0.891093
 H        -2.917611         2.944757         0.842400
 H        -0.793034         1.793687        -1.040372
 H        -0.651447         2.797019         0.501760
 H        -1.319743        -1.628693         0.349571
