19
Iteration:   612
 O         0.655652         0.433254         0.730747
 C        -0.744600         0.594836         0.790445
 C        -1.382895         0.749104         2.265537
 C        -2.556199        -0.090856         1.731313
 C        -3.308767         0.703572         0.541069
 C        -2.605516         2.096290         0.220600
 C        -1.176635         1.822362        -0.114928
 O        -2.854599        -0.259969        -0.481060
 C        -1.826643        -0.613336         0.492772
 H         0.802302         0.426074        -0.209792
 H        -0.926263         0.028407         3.075457
 H        -1.525835         1.818181         2.670299
 H        -3.078809        -0.661950         2.454244
 H        -4.425389         0.843507         0.588816
 H        -3.179262         2.614701        -0.533658
 H        -2.680324         2.769057         1.230222
 H        -1.150714         1.501537        -1.174859
 H        -0.497898         2.715783         0.047831
 H        -1.313941        -1.655081         0.178338
