19
Iteration:  4506
 O         0.697465         0.241732         0.760043
 C        -0.695731         0.571558         0.812941
 C        -1.301050         0.756222         2.191431
 C        -2.518928         0.016334         1.638323
 C        -3.333644         0.709052         0.487323
 C        -2.733621         2.141405         0.425207
 C        -1.257980         1.866155        -0.047045
 O        -2.825081        -0.276733        -0.509320
 C        -1.785820        -0.533474         0.394714
 H         0.861731         0.235262        -0.164338
 H        -0.965351         0.081708         3.032610
 H        -1.534107         1.823093         2.585693
 H        -3.266529        -0.615443         2.167332
 H        -4.417568         0.610749         0.583728
 H        -3.302463         2.700410        -0.340527
 H        -2.898278         2.610391         1.392157
 H        -1.294738         1.902766        -1.179725
 H        -0.731546         2.727333         0.325169
 H        -1.255436        -1.530960         0.193341
