19
Iteration:  4237
 O         0.773082         0.318237         0.692269
 C        -0.731989         0.559690         0.739756
 C        -1.316283         0.720414         2.193234
 C        -2.550746         0.015765         1.662978
 C        -3.380859         0.759337         0.523701
 C        -2.722981         2.117474         0.376180
 C        -1.223332         1.818494         0.011343
 O        -2.862574        -0.317215        -0.543891
 C        -1.798139        -0.530844         0.501175
 H         1.164005         0.970583         0.181517
 H        -0.977479        -0.182863         2.724504
 H        -1.281761         1.675441         2.744707
 H        -3.251011        -0.667160         2.122541
 H        -4.443000         0.578673         0.788103
 H        -3.123158         2.771619        -0.351230
 H        -2.960981         2.679798         1.312002
 H        -1.289490         1.658102        -1.064798
 H        -0.693414         2.753155         0.229146
 H        -1.390695        -1.466409         0.276676
