19
Iteration:  3054charge 0 multiplicity 1
 O         0.533274         0.243933         0.566792
 C        -0.726683         0.639052         0.791189
 C        -1.335024         0.682242         2.210406
 C        -2.568630        -0.068350         1.691032
 C        -3.313373         0.693922         0.532476
 C        -2.665898         2.050960         0.267023
 C        -1.215364         1.962090         0.009684
 O        -2.785723        -0.237406        -0.461916
 C        -1.767229        -0.508976         0.531674
 H         1.234929         0.789889         0.862630
 H        -0.712339         0.252691         3.009561
 H        -1.599273         1.691491         2.541229
 H        -3.203504        -0.776549         2.295817
 H        -4.354949         0.676060         0.690019
 H        -3.161511         2.389701        -0.616904
 H        -2.895558         2.771161         1.087825
 H        -0.806683         1.714231        -0.979867
 H        -0.419145         2.766538         0.190546
 H        -1.316729        -1.479753         0.273517
