19
Iteration:  1820charge 0 multiplicity 1
 O         0.611987         0.495561         0.724761
 C        -0.806035         0.609278         0.767538
 C        -1.357284         0.594175         2.351102
 C        -2.610857        -0.147891         1.684573
 C        -3.250368         0.763753         0.562916
 C        -2.566755         2.120194         0.345368
 C        -1.174543         1.777820        -0.164467
 O        -2.827801        -0.201145        -0.511922
 C        -1.829610        -0.624193         0.425301
 H         0.894764         0.638588        -0.153591
 H        -0.697827        -0.179508         2.857802
 H        -1.411275         1.555057         2.920209
 H        -3.338047        -0.723741         2.307508
 H        -4.350401         0.855204         0.598633
 H        -3.280982         2.728573        -0.311716
 H        -2.585015         2.743742         1.260440
 H        -1.150827         1.811110        -1.278470
 H        -0.492344         2.676972         0.053602
 H        -1.365578        -1.616682         0.114947
