19
Iteration:   223
 O         0.632399         0.317033         0.710882
 C        -0.715011         0.607897         0.772213
 C        -1.309708         0.779429         2.270668
 C        -2.569475        -0.022718         1.721028
 C        -3.368384         0.691490         0.530962
 C        -2.745087         2.063580         0.259919
 C        -1.175994         1.872464        -0.072248
 O        -2.792424        -0.227012        -0.465627
 C        -1.772332        -0.599730         0.444476
 H         0.791088         0.061920        -0.291677
 H        -0.768150         0.106827         2.904800
 H        -1.236026         1.757143         2.762657
 H        -3.121250        -0.668403         2.470785
 H        -4.549033         0.663067         0.561647
 H        -3.375071         2.598317        -0.576413
 H        -2.889261         2.666552         1.087133
 H        -0.909502         1.819380        -1.187595
 H        -0.574296         2.676129         0.406586
 H        -1.310229        -1.513378         0.256847
