19
Iteration:   676charge 0 multiplicity 1
 O         0.585162         0.330934         0.605947
 C        -0.755824         0.654442         0.829057
 C        -1.393752         0.713526         2.224215
 C        -2.588815        -0.076591         1.704814
 C        -3.314869         0.748808         0.539745
 C        -2.653058         2.084637         0.170824
 C        -1.154459         1.900634        -0.032408
 O        -2.797006        -0.318557        -0.403453
 C        -1.730511        -0.531388         0.559771
 H         0.728389         0.623525        -0.360437
 H        -0.893095        -0.063255         2.874887
 H        -1.444707         1.730318         2.663761
 H        -3.133462        -0.745197         2.286862
 H        -4.494792         0.802884         0.598625
 H        -3.017805         2.496628        -0.720133
 H        -2.840681         2.705399         1.061277
 H        -0.989570         1.438179        -1.044363
 H        -0.561441         2.780426         0.391513
 H        -1.243003        -1.580234         0.499330
