19
Iteration:  2430charge 0 multiplicity 1
 O         0.656214         0.271344         0.688708
 C        -0.705724         0.729681         0.763016
 C        -1.198613         0.629551         2.180307
 C        -2.487765        -0.073679         1.685434
 C        -3.391364         0.785124         0.586421
 C        -2.765650         2.022368         0.161342
 C        -1.188131         2.013224         0.083252
 O        -2.879330        -0.325935        -0.436816
 C        -1.812889        -0.534703         0.464153
 H         0.788383         0.288853        -0.233519
 H        -0.632035        -0.090507         2.841158
 H        -1.353724         1.618376         2.683719
 H        -3.147520        -0.785715         2.325449
 H        -4.500491         0.669774         0.628380
 H        -3.317142         2.365120        -0.698809
 H        -2.911888         2.906694         0.812672
 H        -0.924505         1.930520        -0.992198
 H        -0.889688         2.947525         0.425274
 H        -1.313013        -1.522407         0.534129
