19
Iteration:  2778charge 0 multiplicity 1
 O         0.658806         0.311656         0.633049
 C        -0.727821         0.650436         0.750044
 C        -1.240157         0.627647         2.220446
 C        -2.543249        -0.027445         1.743704
 C        -3.367259         0.666194         0.492759
 C        -2.760427         2.125533         0.245622
 C        -1.241451         1.844159         0.002550
 O        -2.879733        -0.212386        -0.466724
 C        -1.746352        -0.562772         0.469473
 H         0.968187         1.107627         0.938512
 H        -0.734415        -0.136706         2.856188
 H        -0.974223         1.485638         2.891179
 H        -3.250354        -0.622503         2.406538
 H        -4.454338         0.763586         0.616736
 H        -3.127310         2.615675        -0.683820
 H        -2.910616         2.901487         1.077541
 H        -0.948382         1.608678        -1.046242
 H        -0.618544         2.653999         0.329216
 H        -1.273864        -1.538563         0.290623
