19
Iteration:   321charge 0 multiplicity 1
 O         0.674151         0.306700         0.736367
 C        -0.718424         0.619576         0.726543
 C        -1.274129         0.794736         2.132854
 C        -2.521070        -0.016907         1.722789
 C        -3.289390         0.716109         0.538372
 C        -2.770342         2.002124         0.326197
 C        -1.200289         1.827446        -0.095052
 O        -2.878663        -0.209708        -0.493235
 C        -1.794358        -0.599243         0.413032
 H         1.119871         0.503541         1.684382
 H        -0.639320         0.403991         2.866101
 H        -1.479508         1.751261         2.548175
 H        -3.162480        -0.613394         2.457846
 H        -4.418168         0.757571         0.559815
 H        -3.437091         2.602734        -0.400385
 H        -2.868195         2.582714         1.234870
 H        -1.044654         1.682214        -1.178623
 H        -0.685149         2.579514         0.262257
 H        -1.669347        -1.614473         0.327789
