19
Iteration:  1452
 O         0.691084         0.337847         0.521771
 C        -0.730333         0.565379         0.832733
 C        -1.249193         0.627080         2.282241
 C        -2.605731        -0.026841         1.759754
 C        -3.336825         0.705605         0.462426
 C        -2.804016         2.078369         0.103571
 C        -1.183912         1.934079         0.151193
 O        -2.771248        -0.170635        -0.522471
 C        -1.814939        -0.509668         0.560913
 H         0.754310        -0.527659         0.266616
 H        -0.657235        -0.148077         2.881818
 H        -1.087927         1.716639         3.031236
 H        -3.407998        -0.619409         2.335014
 H        -4.425555         0.677617         0.579276
 H        -3.271331         2.289729        -0.820349
 H        -3.116074         2.723280         0.961033
 H        -0.877599         1.881127        -0.899870
 H        -0.688242         2.728518         0.825692
 H        -1.610023        -1.560137         0.447628
