19
Iteration:  1969charge 0 multiplicity 1
 O         0.595886         0.326333         0.822169
 C        -0.740871         0.618411         0.714533
 C        -1.316238         0.711734         2.256712
 C        -2.453489        -0.095624         1.686587
 C        -3.351377         0.708835         0.604720
 C        -2.696638         2.082347         0.256380
 C        -1.220734         1.857780        -0.140775
 O        -2.876520        -0.189884        -0.408652
 C        -1.699349        -0.479066         0.375608
 H         1.026972         0.010783        -0.028367
 H        -0.736113         0.027884         2.933839
 H        -1.445952         1.635617         2.764174
 H        -3.054980        -0.978156         2.026675
 H        -4.459577         0.650774         0.719951
 H        -3.241289         2.499651        -0.659338
 H        -2.837772         2.676777         1.178941
 H        -1.308906         1.551131        -1.241599
 H        -0.665109         2.757574        -0.020054
 H        -1.417179        -1.544499         0.114114
