19
Iteration:  3802charge 0 multiplicity 1
 O         0.639661         0.366890         0.673714
 C        -0.782993         0.598453         0.797222
 C        -1.415913         0.671745         2.139494
 C        -2.582778        -0.087794         1.715521
 C        -3.297020         0.742641         0.531263
 C        -2.661868         2.189432         0.366029
 C        -1.169075         1.795614        -0.070923
 O        -2.788497        -0.235482        -0.447928
 C        -1.764522        -0.621937         0.503668
 H         0.775911         0.876220        -0.200844
 H        -0.633701         0.121663         2.753632
 H        -1.539347         1.572987         2.734665
 H        -3.209361        -0.838921         2.224781
 H        -4.352214         0.910401         0.475626
 H        -3.167843         2.661932        -0.571331
 H        -2.727425         2.956921         1.179872
 H        -1.178117         1.418098        -1.128854
 H        -0.580593         2.673859         0.255181
 H        -1.290044        -1.600204         0.322621
