19
Iteration:  1748charge 0 multiplicity 1
 O         0.493958         0.222408         0.538242
 C        -0.818953         0.637416         0.776150
 C        -1.320306         0.683811         2.248637
 C        -2.539959        -0.088806         1.735018
 C        -3.291593         0.748765         0.558126
 C        -2.687034         2.087396         0.191564
 C        -1.114192         2.027635         0.189862
 O        -2.839284        -0.320232        -0.454738
 C        -1.672492        -0.564697         0.396413
 H         1.119184         0.881736         0.462319
 H        -0.742632         0.032807         2.860790
 H        -1.543520         1.702358         2.717909
 H        -3.165993        -0.742725         2.344343
 H        -4.369883         0.892667         0.463580
 H        -3.044553         2.275962        -0.769844
 H        -3.150263         2.942022         0.692301
 H        -0.705483         2.234479        -0.714838
 H        -0.678280         2.764836         0.744047
 H        -1.238742        -1.492479         0.150810
