19
Iteration:  1155charge 0 multiplicity 1
 O         0.558259         0.307192         0.407413
 C        -0.786761         0.537825         0.833523
 C        -1.272044         0.683222         2.274175
 C        -2.548181         0.063997         1.677728
 C        -3.306331         0.716801         0.476449
 C        -2.731161         2.091937         0.116979
 C        -1.250830         1.892855         0.156770
 O        -2.696743        -0.281254        -0.411526
 C        -1.803905        -0.599331         0.602962
 H         1.034881         1.094180         0.568009
 H        -0.996076        -0.167827         2.956098
 H        -1.136016         1.687742         2.753409
 H        -3.301179        -0.432359         2.420023
 H        -4.359111         0.649185         0.583659
 H        -2.932844         2.374350        -0.939691
 H        -3.065355         2.884123         1.013632
 H        -0.805547         2.074856        -0.894128
 H        -0.796146         2.647401         0.813365
 H        -1.411233        -1.566035         0.557630
