19
Iteration:  4888
 O         0.659796         0.365214         0.715998
 C        -0.737919         0.563277         0.744581
 C        -1.278258         0.666978         2.292134
 C        -2.590462        -0.016952         1.647022
 C        -3.310545         0.734226         0.452714
 C        -2.719048         2.109993         0.318911
 C        -1.221688         1.826443         0.029142
 O        -2.812989        -0.230514        -0.496927
 C        -1.786398        -0.559439         0.444566
 H         1.026223         0.214687        -0.246096
 H        -0.674321         0.047068         2.969942
 H        -1.355826         1.729623         2.707616
 H        -3.326273        -0.528473         2.281355
 H        -4.405402         0.579066         0.487750
 H        -3.114473         2.806239        -0.464110
 H        -2.937068         2.585241         1.321724
 H        -1.165783         1.811844        -1.034255
 H        -0.613773         2.662159         0.401386
 H        -1.622558        -1.640160         0.360630
