19
Iteration:  1885
 O         0.553937         0.187903         0.602188
 C        -0.757016         0.642693         0.782314
 C        -1.258378         0.697076         2.187381
 C        -2.589409        -0.078198         1.674760
 C        -3.321756         0.735084         0.523813
 C        -2.785723         2.077917         0.269250
 C        -1.246354         1.977558         0.109431
 O        -2.710577        -0.201231        -0.458906
 C        -1.714073        -0.553582         0.560701
 H         0.721363         0.333330        -0.419265
 H        -0.636262        -0.130180         2.738861
 H        -1.216590         1.657469         2.888410
 H        -3.234283        -0.776434         2.231762
 H        -4.418502         0.719813         0.429787
 H        -3.166787         2.303187        -0.798414
 H        -3.203799         2.974039         0.675265
 H        -0.783079         2.138965        -0.875160
 H        -0.732916         2.806802         0.653877
 H        -1.125374        -1.483638         0.335876
