19
Iteration:  4897
 O         0.793281         0.315190         0.778064
 C        -0.710992         0.630747         0.749396
 C        -1.313947         0.610457         2.212384
 C        -2.593617        -0.037300         1.725412
 C        -3.342437         0.734906         0.458960
 C        -2.731316         2.080056         0.314801
 C        -1.277223         1.900162        -0.010972
 O        -2.831945        -0.201707        -0.499028
 C        -1.856694        -0.544602         0.443018
 H         0.888046         0.289317        -0.261606
 H        -0.713202        -0.053658         2.893647
 H        -1.326153         1.576382         2.787737
 H        -3.154396        -0.702827         2.344765
 H        -4.435729         0.688447         0.483819
 H        -3.168144         2.469415        -0.604195
 H        -2.814219         2.767987         1.188121
 H        -1.063917         1.648047        -1.072485
 H        -0.596498         2.829361         0.142648
 H        -1.455380        -1.503006         0.361468
