19
Iteration:  2598charge 0 multiplicity 1
 O         0.564004         0.320866         0.548250
 C        -0.758991         0.609721         0.764928
 C        -1.238776         0.609236         2.299548
 C        -2.550327        -0.035640         1.748907
 C        -3.317446         0.689516         0.445820
 C        -2.744546         2.154672         0.207033
 C        -1.231661         1.925967         0.051960
 O        -2.756269        -0.272345        -0.490355
 C        -1.783557        -0.555218         0.646941
 H         0.806887         0.627897        -0.283971
 H        -0.603973        -0.228260         2.693080
 H        -1.182751         1.646433         2.788623
 H        -3.187897        -0.571562         2.346948
 H        -4.429611         0.662895         0.308965
 H        -3.258781         2.772478        -0.633105
 H        -3.076135         2.856166         1.026842
 H        -0.972603         1.832699        -1.020539
 H        -0.574161         2.703707         0.412960
 H        -1.316588        -1.545773         0.891530
