19
Iteration:  4291
 O         0.569808         0.276291         0.448970
 C        -0.748846         0.626193         0.870590
 C        -1.385389         0.640576         2.357215
 C        -2.494394        -0.073088         1.681170
 C        -3.309138         0.769996         0.585952
 C        -2.729203         2.067611         0.196340
 C        -1.199510         1.908803        -0.020217
 O        -2.793065        -0.192006        -0.437626
 C        -1.729681        -0.558730         0.501379
 H         1.272490         0.767373         0.803155
 H        -0.973757        -0.065870         3.096275
 H        -1.560830         1.687740         2.646299
 H        -3.136440        -0.802315         2.190397
 H        -4.431554         0.723647         0.721526
 H        -3.126535         2.134692        -0.848911
 H        -2.934028         2.951319         0.887267
 H        -0.866785         1.665918        -1.044029
 H        -0.631079         2.845244         0.418832
 H        -1.262424        -1.517444         0.312586
