19
Iteration:  2842
 O         0.578446         0.190941         0.615095
 C        -0.776547         0.679827         0.751816
 C        -1.285799         0.689966         2.249212
 C        -2.514792        -0.006247         1.719391
 C        -3.311056         0.693186         0.586845
 C        -2.743475         2.089576         0.305942
 C        -1.213536         1.880614        -0.015915
 O        -2.799312        -0.241328        -0.540835
 C        -1.759286        -0.494326         0.484784
 H         1.244737         0.849918         0.718297
 H        -0.779016        -0.106111         2.909227
 H        -1.583023         1.668951         2.824117
 H        -2.973644        -0.827150         2.256070
 H        -4.406771         0.514993         0.638349
 H        -3.154610         2.563158        -0.639994
 H        -2.938540         2.694438         1.231017
 H        -0.944817         1.768090        -1.120486
 H        -0.848098         3.016181         0.178027
 H        -1.205845        -1.416611         0.266734
