19
Iteration:  1789
 O         0.701766         0.331361         0.724553
 C        -0.704743         0.565098         0.749241
 C        -1.319148         0.641906         2.248260
 C        -2.618774        -0.025210         1.636236
 C        -3.375701         0.741730         0.534097
 C        -2.728929         2.130316         0.363518
 C        -1.260419         1.753548        -0.055732
 O        -2.769860        -0.174374        -0.458405
 C        -1.780500        -0.542224         0.406442
 H         1.077138         1.116914         0.183632
 H        -0.837745        -0.109874         2.835052
 H        -1.214895         1.511070         2.769709
 H        -3.270762        -0.638264         2.302559
 H        -4.481820         0.638169         0.504699
 H        -3.174352         2.692995        -0.473436
 H        -2.824301         2.730694         1.306686
 H        -1.280393         1.558111        -1.178087
 H        -0.494766         2.648677         0.200599
 H        -1.323480        -1.527615         0.147393
