19
Iteration:     8
 O         0.629841         0.448736         0.598519
 C        -0.759066         0.602252         0.786916
 C        -1.358141         0.650235         2.253305
 C        -2.602349        -0.038871         1.684491
 C        -3.289908         0.770020         0.564119
 C        -2.655924         2.109137         0.262929
 C        -1.233655         1.772709        -0.045140
 O        -2.791410        -0.240220        -0.441563
 C        -1.736991        -0.598131         0.482365
 H         0.857389        -0.455572         1.080455
 H        -0.629856         0.124249         2.983155
 H        -1.485354         1.761664         2.409888
 H        -3.327073        -0.587464         2.317846
 H        -4.381029         0.880392         0.561876
 H        -3.215266         2.473664        -0.551837
 H        -2.829094         2.909645         1.059324
 H        -1.224402         1.627578        -1.095349
 H        -0.675646         2.709026         0.036398
 H        -1.244669        -1.666284         0.256194
