19
Iteration:  4815charge 0 multiplicity 1
 O         0.624498         0.306476         0.800255
 C        -0.781864         0.623276         0.669836
 C        -1.212187         0.596783         2.203635
 C        -2.580861        -0.019333         1.683592
 C        -3.328728         0.772643         0.543278
 C        -2.743497         2.037630         0.231187
 C        -1.153617         1.916475         0.095602
 O        -2.852312        -0.177093        -0.508352
 C        -1.808990        -0.569893         0.452896
 H         1.084063         0.681568         0.018507
 H        -0.684135        -0.171158         2.718928
 H        -1.233296         1.537726         2.733459
 H        -3.103518        -0.742699         2.363315
 H        -4.416966         0.684701         0.636636
 H        -3.231826         2.297159        -0.720594
 H        -3.064281         2.801117         0.897304
 H        -1.008036         1.655776        -1.022628
 H        -0.519312         2.725839         0.443834
 H        -1.239442        -1.512227         0.145517
