19
Iteration:  1823charge 0 multiplicity 1
 O         0.626633         0.495814         0.729400
 C        -0.817858         0.591879         0.760490
 C        -1.358590         0.593733         2.338740
 C        -2.603411        -0.127733         1.677427
 C        -3.269852         0.748152         0.565371
 C        -2.581330         2.129082         0.337050
 C        -1.159858         1.799510        -0.149840
 O        -2.830562        -0.210514        -0.482194
 C        -1.834243        -0.610366         0.413678
 H         0.977240         0.562544        -0.277778
 H        -0.772835        -0.103597         2.820948
 H        -1.467498         1.445051         2.867351
 H        -3.331377        -0.740548         2.231739
 H        -4.364525         0.805197         0.626400
 H        -3.190334         2.650918        -0.359138
 H        -2.513988         2.720744         1.297362
 H        -1.099962         1.731862        -1.266759
 H        -0.503085         2.701854         0.143249
 H        -1.346071        -1.510839         0.090984
