19
Iteration:  3328
 O         0.580764         0.302322         0.519310
 C        -0.755460         0.581402         0.763445
 C        -1.351275         0.668227         2.267019
 C        -2.568575        -0.053952         1.670172
 C        -3.360087         0.762951         0.462447
 C        -2.665821         2.046255         0.262514
 C        -1.194661         1.890378         0.094782
 O        -2.803308        -0.220280        -0.485980
 C        -1.730655        -0.582325         0.568326
 H         1.324932         1.006350         0.710138
 H        -0.693154        -0.022221         2.832171
 H        -1.379264         1.742935         2.683393
 H        -3.196681        -0.673643         2.381858
 H        -4.434766         0.943332         0.481699
 H        -3.161548         2.574735        -0.583432
 H        -2.750689         2.717986         1.157058
 H        -1.113664         1.901800        -0.954947
 H        -0.683974         2.634286         0.630676
 H        -1.211536        -1.584302         0.493441
