19
Iteration:   795charge 0 multiplicity 1
 O         0.694298         0.414049         0.758234
 C        -0.676705         0.635138         0.744422
 C        -1.316071         0.701498         2.194755
 C        -2.537922        -0.004076         1.642768
 C        -3.375907         0.725103         0.548304
 C        -2.712454         2.066340         0.339528
 C        -1.202435         1.711796        -0.148420
 O        -2.843441        -0.198609        -0.459477
 C        -1.874099        -0.679595         0.483906
 H         1.238699         1.237507         0.453596
 H        -0.752878         0.006334         2.848328
 H        -1.307077         1.672912         2.653963
 H        -3.189188        -0.530608         2.399220
 H        -4.525167         0.770250         0.680670
 H        -3.114071         2.764429        -0.586840
 H        -2.669739         2.579300         1.324328
 H        -1.210572         1.501926        -1.280682
 H        -0.594985         2.697214         0.016679
 H        -1.517564        -1.707865         0.487086
