19
Iteration:  1620
 O         0.663425         0.242405         0.604684
 C        -0.777876         0.596882         0.775806
 C        -1.292743         0.641069         2.180274
 C        -2.561896        -0.013015         1.692936
 C        -3.301728         0.735146         0.551784
 C        -2.846618         2.090303         0.210086
 C        -1.185455         1.918556         0.086777
 O        -2.753849        -0.183757        -0.457485
 C        -1.814587        -0.541397         0.518251
 H         1.203826         0.998717         0.392429
 H        -0.697539        -0.149811         2.650082
 H        -1.313253         1.443070         2.764114
 H        -3.220130        -0.589653         2.284440
 H        -4.386912         0.696742         0.466202
 H        -3.262004         2.229785        -0.823258
 H        -3.029196         2.847286         0.956814
 H        -0.890278         1.646264        -0.955459
 H        -0.550598         2.669725         0.651529
 H        -1.411970        -1.545202         0.505043
