19
Iteration:  1960charge 0 multiplicity 1
 O         0.660453         0.338857         0.889552
 C        -0.736778         0.652512         0.682100
 C        -1.274815         0.693682         2.249266
 C        -2.523176        -0.085540         1.650698
 C        -3.318926         0.703221         0.600778
 C        -2.723270         2.061078         0.259303
 C        -1.300766         1.851099        -0.175328
 O        -2.865061        -0.146834        -0.413705
 C        -1.770023        -0.620710         0.372943
 H         1.139665         0.334818         0.013150
 H        -0.512745        -0.096360         2.630494
 H        -1.269807         1.713887         2.818036
 H        -3.131608        -0.693098         2.360771
 H        -4.415898         0.726429         0.697733
 H        -3.309199         2.790521        -0.506899
 H        -2.626747         2.702894         1.170039
 H        -1.127129         1.664752        -1.282499
 H        -0.708521         2.717049         0.035586
 H        -1.370205        -1.679111         0.221078
