19
Iteration:  2713
 O         0.600241         0.284915         0.485428
 C        -0.733857         0.581619         0.817928
 C        -1.292622         0.738089         2.238718
 C        -2.615850        -0.038565         1.612964
 C        -3.316372         0.704190         0.541705
 C        -2.713713         2.077634         0.274659
 C        -1.221844         1.889736         0.074814
 O        -2.781923        -0.244627        -0.486117
 C        -1.728820        -0.580012         0.567919
 H         1.231938         1.009090         0.640218
 H        -0.828979         0.080222         2.973288
 H        -1.224212         1.760932         2.607164
 H        -3.280764        -0.560859         2.389630
 H        -4.397288         0.593127         0.537396
 H        -3.239911         2.618464        -0.476914
 H        -2.992212         2.807131         1.059468
 H        -1.118650         1.775697        -0.996794
 H        -0.758312         2.721336         0.572890
 H        -1.381759        -1.613153         0.589009
