19
Iteration:  2875
 O         0.617978         0.226318         0.571950
 C        -0.715947         0.607922         0.763760
 C        -1.284417         0.638211         2.176287
 C        -2.547959        -0.007184         1.702031
 C        -3.306679         0.745651         0.554203
 C        -2.770191         2.053790         0.173582
 C        -1.211941         1.946967         0.136522
 O        -2.814511        -0.204892        -0.452652
 C        -1.813480        -0.591284         0.500286
 H         1.219222         0.955210         0.554011
 H        -0.660657         0.280126         3.043465
 H        -1.456848         1.591740         2.721826
 H        -2.925954        -0.749041         2.325162
 H        -4.375279         0.506139         0.674223
 H        -3.138529         2.393730        -0.832736
 H        -3.067526         2.883689         0.854003
 H        -1.012961         1.967110        -0.975167
 H        -0.807859         2.889249         0.759106
 H        -1.199895        -1.481354         0.321059
