19
Iteration:  2585charge 0 multiplicity 1
 O         0.611902         0.389840         0.509904
 C        -0.794682         0.604235         0.828969
 C        -1.272333         0.621724         2.280930
 C        -2.616531         0.018237         1.743514
 C        -3.313690         0.771230         0.476636
 C        -2.734244         2.102070         0.212223
 C        -1.199158         1.864952         0.047638
 O        -2.709298        -0.260865        -0.409343
 C        -1.777859        -0.600631         0.542185
 H         0.618459         0.483573        -0.539482
 H        -0.824208        -0.112293         2.962540
 H        -1.366925         1.509369         2.991636
 H        -3.201390        -0.722506         2.358166
 H        -4.439547         0.703321         0.556187
 H        -3.045842         2.383631        -0.827302
 H        -2.984233         2.701306         1.103857
 H        -1.019117         1.717559        -1.008320
 H        -0.640086         2.642692         0.362010
 H        -1.407296        -1.631153         0.288547
