19
Iteration:  1421charge 0 multiplicity 1
 O         0.548772         0.231042         0.634629
 C        -0.776222         0.620213         0.787529
 C        -1.328493         0.725043         2.239562
 C        -2.549128        -0.122952         1.646501
 C        -3.270248         0.702742         0.510151
 C        -2.732056         2.114242         0.189233
 C        -1.158993         1.980773         0.121253
 O        -2.796835        -0.269753        -0.428413
 C        -1.697480        -0.506238         0.480520
 H         0.496843         0.162251        -0.400067
 H        -0.725220         0.066086         2.862032
 H        -1.487005         1.778546         2.707854
 H        -3.185700        -0.780367         2.288964
 H        -4.339057         0.798328         0.636072
 H        -3.294073         2.559929        -0.634201
 H        -3.016053         2.859176         0.975946
 H        -0.838744         1.978591        -0.901600
 H        -0.548002         2.816267         0.555648
 H        -1.315651        -1.474590         0.355010
