19
Iteration:  1203charge 0 multiplicity 1
 O         0.623594         0.232399         0.729490
 C        -0.749442         0.653650         0.754825
 C        -1.344157         0.723460         2.235090
 C        -2.537910        -0.016450         1.657626
 C        -3.325403         0.684049         0.586185
 C        -2.746594         2.101632         0.318906
 C        -1.202409         1.849169        -0.092879
 O        -2.888643        -0.234410        -0.482323
 C        -1.649983        -0.530900         0.424000
 H         1.263771         0.938210         0.473757
 H        -0.642490         0.114638         2.784237
 H        -1.505498         1.722464         2.502058
 H        -3.055566        -0.696276         2.430875
 H        -4.448597         0.768052         0.683559
 H        -3.372375         2.549263        -0.533227
 H        -2.756099         2.654473         1.216173
 H        -1.070216         1.573626        -1.094187
 H        -0.589025         2.774661         0.112986
 H        -1.291249        -1.631015         0.303742
