19
Iteration:  4279charge 0 multiplicity 1
 O         0.498597         0.222279         0.506697
 C        -0.807889         0.667095         0.782399
 C        -1.339972         0.682871         2.342701
 C        -2.514936        -0.087897         1.708517
 C        -3.246189         0.733355         0.621662
 C        -2.712330         2.139115         0.219699
 C        -1.212466         1.826793         0.045516
 O        -2.743922        -0.220652        -0.500570
 C        -1.714883        -0.531453         0.451198
 H         1.137281         1.071002         0.633895
 H        -0.577917         0.320752         3.014315
 H        -1.725321         1.612989         2.818908
 H        -3.205896        -0.711998         2.330472
 H        -4.335395         0.641957         0.491457
 H        -3.270338         2.476084        -0.714177
 H        -3.098515         2.941406         0.945340
 H        -1.042126         1.631654        -1.017090
 H        -0.450469         2.700071         0.335541
 H        -1.297937        -1.559712         0.436300
