19
Iteration:  4358charge 0 multiplicity 1
 O         0.630275         0.276179         0.539336
 C        -0.688113         0.641653         0.766826
 C        -1.352890         0.706995         2.255300
 C        -2.597693        -0.111852         1.709951
 C        -3.370171         0.706498         0.563009
 C        -2.652204         2.113195         0.297430
 C        -1.163351         1.823815        -0.048982
 O        -2.805488        -0.219984        -0.472004
 C        -1.795662        -0.519481         0.521542
 H         1.142006         0.983919         1.106391
 H        -0.877128         0.006971         2.989846
 H        -1.575293         1.688854         2.692744
 H        -3.045814        -0.742273         2.441392
 H        -4.494717         0.752429         0.515354
 H        -3.193210         2.463895        -0.595063
 H        -2.969370         2.775927         1.181275
 H        -1.125527         1.699280        -1.167277
 H        -0.680479         2.841774         0.206321
 H        -1.308996        -1.389881         0.202888
