19
Iteration:  4731
 O         0.589025         0.213819         0.680384
 C        -0.759965         0.599975         0.775849
 C        -1.288177         0.604799         2.185005
 C        -2.624384        -0.011910         1.700530
 C        -3.220101         0.699386         0.512828
 C        -2.786241         2.175509         0.272815
 C        -1.262904         1.989982         0.048860
 O        -2.721636        -0.176521        -0.484938
 C        -1.730431        -0.602777         0.512147
 H         0.991127         0.271752        -0.158170
 H        -0.805734        -0.048551         3.027609
 H        -1.439683         1.657749         2.580476
 H        -3.110392        -0.807917         2.331307
 H        -4.332781         0.647070         0.415728
 H        -3.255387         2.414505        -0.718364
 H        -2.970325         2.922895         1.129657
 H        -1.219767         1.895969        -1.073036
 H        -0.633288         2.897416         0.405996
 H        -1.407460        -1.591802         0.278782
