19
Iteration:   383
 O         0.609566         0.473084         0.538084
 C        -0.714922         0.560960         0.867102
 C        -1.268583         0.598506         2.274419
 C        -2.605169         0.029962         1.750635
 C        -3.386599         0.729051         0.548750
 C        -2.742547         2.068719         0.091189
 C        -1.175489         1.825948         0.057792
 O        -2.784702        -0.201834        -0.491978
 C        -1.763977        -0.562171         0.514139
 H         0.989156        -0.443556         0.906747
 H        -0.804540        -0.230638         2.951033
 H        -1.262268         1.609243         2.797428
 H        -3.145702        -0.596942         2.454942
 H        -4.449004         0.708483         0.536885
 H        -3.089600         2.222066        -0.886440
 H        -3.070504         2.961895         0.726384
 H        -0.818919         1.628403        -0.985770
 H        -0.501011         2.808924         0.378978
 H        -1.534019        -1.691639         0.566500
