19
Iteration:  4585
 O         0.657354         0.321122         0.719536
 C        -0.772612         0.594688         0.733952
 C        -1.256248         0.589838         2.230695
 C        -2.615874         0.049342         1.738865
 C        -3.380263         0.733366         0.566049
 C        -2.772742         2.062769         0.180761
 C        -1.137500         1.922398         0.086771
 O        -2.817490        -0.214430        -0.514188
 C        -1.764280        -0.568796         0.444318
 H         1.092615         0.344611        -0.242718
 H        -0.666375        -0.165055         2.783848
 H        -1.125024         1.493569         2.929121
 H        -3.267685        -0.702283         2.182138
 H        -4.467060         0.654454         0.601878
 H        -3.251881         2.432919        -0.775669
 H        -3.018316         2.705275         1.023716
 H        -0.823009         1.999061        -0.950333
 H        -0.692030         2.791529         0.563926
 H        -1.202518        -1.546198         0.264148
