19
Iteration:  4454
 O         0.618148         0.407652         0.620608
 C        -0.732828         0.640092         0.796233
 C        -1.304400         0.614491         2.278256
 C        -2.541411        -0.153518         1.707784
 C        -3.303144         0.764568         0.580477
 C        -2.661408         2.143414         0.139181
 C        -1.176273         1.850988         0.087408
 O        -2.839126        -0.206711        -0.470201
 C        -1.794516        -0.602274         0.471177
 H         0.820149         0.314481        -0.253821
 H        -0.881246        -0.132877         2.913954
 H        -1.605413         1.575378         2.722843
 H        -3.366521        -0.659386         2.171962
 H        -4.365591         0.952798         0.650565
 H        -3.289394         2.345264        -0.769963
 H        -2.996792         2.901164         0.834553
 H        -1.004925         1.683314        -0.935753
 H        -0.591218         2.658109         0.437885
 H        -1.385454        -1.626858         0.537298
