19
Iteration:   747charge 0 multiplicity 1
 O         0.625842         0.311710         0.753718
 C        -0.731536         0.697024         0.812001
 C        -1.276714         0.652177         2.247233
 C        -2.523488        -0.038617         1.729501
 C        -3.307506         0.703383         0.592974
 C        -2.724801         2.047836         0.126448
 C        -1.208871         1.956125        -0.073638
 O        -2.854943        -0.248730        -0.457125
 C        -1.788915        -0.532517         0.446923
 H         0.677307        -0.185975        -0.123904
 H        -0.613343        -0.043546         2.753495
 H        -1.415060         1.608308         2.814272
 H        -3.078791        -0.799749         2.417850
 H        -4.336806         0.801238         0.643802
 H        -3.294941         2.310565        -0.806613
 H        -2.805551         2.818029         0.925206
 H        -1.003729         1.695958        -1.090411
 H        -0.717780         2.828197         0.195577
 H        -1.378567        -1.544412         0.393668
