19
Iteration:  1469
 O         0.662815         0.444828         0.516045
 C        -0.716925         0.551222         0.804054
 C        -1.265661         0.565851         2.303204
 C        -2.601839         0.046796         1.667423
 C        -3.387221         0.776995         0.501389
 C        -2.720705         2.096180         0.196578
 C        -1.208929         1.840299         0.123037
 O        -2.796519        -0.229772        -0.452845
 C        -1.802036        -0.597436         0.471297
 H         0.910235        -0.346364         0.905702
 H        -0.844718        -0.188479         2.969631
 H        -1.298526         1.446707         2.752191
 H        -3.133917        -0.514521         2.404028
 H        -4.499148         0.776403         0.428730
 H        -3.012098         2.618197        -0.773913
 H        -2.976650         2.914728         0.866211
 H        -0.832396         1.780154        -0.934879
 H        -0.722043         2.702442         0.484249
 H        -1.386319        -1.665817         0.514814
