19
Iteration:  2949
 O         0.614332         0.205200         0.713361
 C        -0.730579         0.626297         0.727660
 C        -1.289208         0.736591         2.155937
 C        -2.530765        -0.050963         1.722018
 C        -3.333758         0.706199         0.539659
 C        -2.755058         2.020635         0.329381
 C        -1.272968         1.834112        -0.040671
 O        -2.792611        -0.113705        -0.495578
 C        -1.722961        -0.516535         0.441791
 H         1.164570         0.925447         0.539664
 H        -0.729038         0.025555         2.861720
 H        -1.494620         1.816625         2.504580
 H        -2.965011        -0.630107         2.582022
 H        -4.485113         0.528763         0.654350
 H        -3.202157         2.678864        -0.498585
 H        -2.865728         2.601567         1.226559
 H        -1.170259         1.480251        -1.063597
 H        -0.764002         2.735462         0.214560
 H        -1.387209        -1.588381         0.420164
