19
Iteration:   756charge 0 multiplicity 1
 O         0.599676         0.369248         0.787588
 C        -0.746301         0.690829         0.775485
 C        -1.316657         0.679361         2.222988
 C        -2.457498        -0.098776         1.647140
 C        -3.311275         0.730899         0.628597
 C        -2.661581         2.051574         0.174900
 C        -1.178780         1.875739        -0.117851
 O        -2.918190        -0.229699        -0.409492
 C        -1.790854        -0.568858         0.450547
 H         0.868337         0.131617        -0.164491
 H        -0.782739         0.086032         2.998620
 H        -1.693996         1.581658         2.810960
 H        -3.035861        -0.776901         2.256580
 H        -4.369407         0.624629         0.734216
 H        -3.189850         2.343748        -0.630373
 H        -2.735140         2.935403         0.836626
 H        -0.792580         1.669576        -1.076448
 H        -0.603707         2.771229         0.086797
 H        -1.391369        -1.608535         0.163987
