19
Iteration:  3435
 O         0.634779         0.212214         0.510497
 C        -0.734795         0.582882         0.815121
 C        -1.255605         0.691234         2.209506
 C        -2.620254         0.057483         1.666847
 C        -3.361580         0.678288         0.507990
 C        -2.745820         2.067876         0.273270
 C        -1.289386         1.856797         0.131950
 O        -2.744301        -0.251275        -0.503343
 C        -1.750612        -0.502755         0.533889
 H         1.342891         1.004115         0.639072
 H        -0.728856        -0.092206         2.818590
 H        -1.296248         1.579610         2.836797
 H        -3.293324        -0.303046         2.427928
 H        -4.474181         0.642734         0.339476
 H        -3.149771         2.556934        -0.588826
 H        -2.845597         2.871475         1.080778
 H        -1.134125         2.232204        -0.915925
 H        -0.685929         2.782744         0.528888
 H        -1.262058        -1.527442         0.486522
