19
Iteration:  3401
 O         0.545160         0.222193         0.606279
 C        -0.770891         0.633747         0.791466
 C        -1.329503         0.760143         2.259093
 C        -2.534754        -0.129124         1.715486
 C        -3.272918         0.731961         0.569769
 C        -2.649193         2.070834         0.303640
 C        -1.207579         1.920603        -0.052811
 O        -2.827942        -0.199429        -0.498502
 C        -1.727610        -0.576083         0.386766
 H         1.188797         0.928429         1.004724
 H        -0.741351         0.155358         2.984244
 H        -1.827191         1.588068         2.705802
 H        -3.160712        -0.751745         2.311841
 H        -4.373284         0.689794         0.797311
 H        -3.244846         2.494536        -0.516313
 H        -2.810883         2.800427         1.144174
 H        -1.043776         1.681887        -1.162661
 H        -0.815241         2.927947         0.362820
 H        -1.113454        -1.513921         0.392256
