19
Iteration:  4488
 O         0.633984         0.212077         0.759449
 C        -0.732357         0.692280         0.734716
 C        -1.262408         0.692830         2.195009
 C        -2.545870        -0.055759         1.666882
 C        -3.382228         0.689558         0.550161
 C        -2.792534         2.080393         0.284090
 C        -1.252838         1.891221         0.033584
 O        -2.780339        -0.154224        -0.539278
 C        -1.719380        -0.509993         0.472600
 H         0.934149        -0.141065        -0.065405
 H        -0.618984         0.104899         2.851643
 H        -1.210605         1.624950         2.767807
 H        -3.067507        -0.692518         2.392801
 H        -4.471324         0.735986         0.521156
 H        -3.295461         2.551175        -0.621482
 H        -2.907537         2.613268         1.248568
 H        -1.108067         1.590332        -0.967722
 H        -0.643199         2.793080         0.084275
 H        -1.393321        -1.551966         0.461836
