19
Iteration:  2116charge 0 multiplicity 1
 O         0.603037         0.256457         0.671017
 C        -0.701197         0.673662         0.726053
 C        -1.292707         0.707285         2.142638
 C        -2.584578         0.039117         1.686635
 C        -3.375749         0.675673         0.512220
 C        -2.750450         2.123679         0.389493
 C        -1.223298         1.838475        -0.089687
 O        -2.791574        -0.277974        -0.420103
 C        -1.709869        -0.566527         0.484056
 H         1.193880         0.982260         0.626897
 H        -0.703072         0.064095         2.780463
 H        -1.286748         1.575749         2.890358
 H        -3.078604        -0.517981         2.403105
 H        -4.442032         0.574218         0.521145
 H        -3.201351         2.584844        -0.570791
 H        -2.948990         2.676316         1.361877
 H        -1.347826         1.569257        -1.103993
 H        -0.626259         2.783737        -0.083765
 H        -1.264329        -1.533556         0.380613
