19
Iteration:  1403
 O         0.659396         0.281294         0.688896
 C        -0.723321         0.680987         0.758418
 C        -1.335806         0.692809         2.243058
 C        -2.544933        -0.054706         1.723948
 C        -3.347438         0.707788         0.526464
 C        -2.645678         2.054822         0.320035
 C        -1.161291         1.916976         0.004626
 O        -2.863877        -0.271693        -0.536826
 C        -1.859041        -0.577783         0.461577
 H         1.184582         0.814832        -0.052440
 H        -0.773416         0.177534         3.046275
 H        -1.548674         1.615835         2.632643
 H        -3.154170        -0.647742         2.366041
 H        -4.469019         0.671853         0.556077
 H        -3.186086         2.612746        -0.556275
 H        -2.829751         2.786900         1.131818
 H        -0.976199         1.813290        -1.099107
 H        -0.683549         2.817310         0.361797
 H        -1.258348        -1.557841         0.163112
