19
Iteration:  3584charge 0 multiplicity 1
 O         0.684333         0.280531         0.520012
 C        -0.749508         0.567298         0.797752
 C        -1.269169         0.660353         2.242296
 C        -2.605150        -0.034190         1.782328
 C        -3.336207         0.778193         0.532108
 C        -2.797545         2.137267         0.153961
 C        -1.194201         1.913672         0.089914
 O        -2.806311        -0.276902        -0.501512
 C        -1.772685        -0.565042         0.515753
 H         1.194055         1.004805         0.686923
 H        -0.738702        -0.221734         2.738543
 H        -1.247677         1.538385         2.935575
 H        -3.290701        -0.415421         2.516248
 H        -4.431068         0.829170         0.577024
 H        -3.378402         2.258266        -0.825795
 H        -3.049003         2.839062         0.963519
 H        -0.720080         1.777862        -0.920213
 H        -0.718081         2.734030         0.662070
 H        -1.350065        -1.581741         0.430787
