19
Iteration:  3525charge 0 multiplicity 1
 O         0.642990         0.208514         0.718902
 C        -0.710678         0.579766         0.711582
 C        -1.307623         0.723130         2.172250
 C        -2.516494        -0.003106         1.596684
 C        -3.313023         0.740185         0.545503
 C        -2.764599         2.106125         0.375209
 C        -1.282748         1.879560        -0.037425
 O        -2.821277        -0.221406        -0.478908
 C        -1.707942        -0.573253         0.487742
 H         1.044051         1.149735         0.434648
 H        -0.785811         0.088501         2.861154
 H        -1.368648         1.750231         2.634778
 H        -3.237701        -0.570194         2.281561
 H        -4.393237         0.667171         0.649114
 H        -3.447034         2.684488        -0.241048
 H        -2.989181         2.603508         1.334310
 H        -1.162314         1.673488        -1.112317
 H        -0.495699         2.658614         0.115620
 H        -1.446452        -1.619333         0.419784
