19
Iteration:   597
 O         0.537661         0.405260         0.582980
 C        -0.819481         0.709248         0.862896
 C        -1.340661         0.686879         2.268889
 C        -2.618186        -0.022449         1.706400
 C        -3.261144         0.729454         0.477722
 C        -2.639791         2.089822         0.246109
 C        -1.124174         1.839487         0.013315
 O        -2.779861        -0.341185        -0.453248
 C        -1.764549        -0.581453         0.534115
 H         0.675488         0.010278        -0.373876
 H        -0.644592         0.174170         2.880102
 H        -1.503882         1.624355         2.760085
 H        -3.388006        -0.619535         2.215494
 H        -4.394229         0.705479         0.442961
 H        -3.068043         2.677553        -0.575905
 H        -2.782054         2.675737         1.093009
 H        -0.896023         1.486102        -1.073612
 H        -0.406050         2.662779         0.121822
 H        -1.278620        -1.515504         0.564588
