19
Iteration:   227charge 0 multiplicity 1
 O         0.658220         0.296735         0.658404
 C        -0.719573         0.580572         0.808579
 C        -1.319024         0.785140         2.264586
 C        -2.569482         0.014413         1.687357
 C        -3.382629         0.677876         0.524811
 C        -2.755703         2.077436         0.227557
 C        -1.191397         1.904248        -0.023929
 O        -2.791168        -0.243898        -0.454851
 C        -1.770174        -0.614497         0.465259
 H         0.848257         0.219373        -0.234884
 H        -0.722306         0.169272         3.010222
 H        -1.183139         1.757491         2.775127
 H        -3.126666        -0.588441         2.394135
 H        -4.449118         0.630561         0.454066
 H        -3.348359         2.564286        -0.522333
 H        -2.917460         2.749557         1.124153
 H        -0.951097         1.846782        -1.097394
 H        -0.538108         2.692435         0.551265
 H        -1.363985        -1.674104         0.278216
