19
Iteration:  3926charge 0 multiplicity 1
 O         0.596309         0.277373         0.695931
 C        -0.769441         0.617675         0.766201
 C        -1.277486         0.669494         2.165842
 C        -2.562703        -0.016717         1.703634
 C        -3.340269         0.706294         0.586762
 C        -2.683344         2.094339         0.272563
 C        -1.207303         1.834598        -0.031590
 O        -2.759323        -0.182369        -0.483528
 C        -1.825090        -0.569761         0.458957
 H         1.045334         1.041244         0.420153
 H        -0.710274        -0.098163         2.808901
 H        -1.350166         1.607351         2.805223
 H        -3.151229        -0.484723         2.486290
 H        -4.406273         0.495083         0.596570
 H        -3.447700         2.440616        -0.484203
 H        -2.833385         2.894575         1.023968
 H        -1.123176         1.571754        -1.097699
 H        -0.595654         2.766177         0.202423
 H        -1.206822        -1.472299         0.209992
