19
Iteration:  1244
 O         0.707507         0.468999         0.639957
 C        -0.752163         0.575184         0.796187
 C        -1.345811         0.589845         2.214692
 C        -2.604923        -0.071958         1.674450
 C        -3.328990         0.777618         0.574834
 C        -2.665606         2.118096         0.286882
 C        -1.162406         1.715643        -0.121418
 O        -2.853053        -0.195736        -0.437585
 C        -1.811597        -0.592763         0.482640
 H         0.956784         1.383742         0.689080
 H        -0.801516        -0.055989         2.902587
 H        -1.390285         1.466829         2.880089
 H        -3.486828        -0.572040         2.204921
 H        -4.392902         0.681639         0.666854
 H        -3.170973         2.560499        -0.608446
 H        -2.742084         2.720233         1.319628
 H        -1.106959         1.473937        -1.201905
 H        -0.432333         2.525736         0.097803
 H        -1.419686        -1.580284         0.348283
