19
Iteration:   823charge 0 multiplicity 1
 O         0.569297         0.283455         0.513714
 C        -0.770531         0.658514         0.823149
 C        -1.302855         0.582813         2.303515
 C        -2.606388         0.016055         1.738910
 C        -3.317465         0.712776         0.463863
 C        -2.727684         2.134428         0.220824
 C        -1.246876         1.844364        -0.012575
 O        -2.713075        -0.288858        -0.447955
 C        -1.766627        -0.516351         0.570292
 H         1.100543         1.112175         0.550492
 H        -0.822603        -0.099797         3.020516
 H        -1.178489         1.646255         2.715924
 H        -3.233334        -0.588869         2.470968
 H        -4.357164         0.699090         0.400220
 H        -2.954895         2.500759        -0.685607
 H        -2.942210         2.888915         0.968032
 H        -1.096054         1.649881        -1.047079
 H        -0.639750         2.793376         0.083709
 H        -1.093374        -1.398413         0.610463
