19
Iteration:  1866
 O         0.662424         0.199020         0.709901
 C        -0.774405         0.616970         0.719206
 C        -1.216593         0.657908         2.243312
 C        -2.487121         0.036115         1.726422
 C        -3.337568         0.658915         0.563428
 C        -2.829684         2.064807         0.152301
 C        -1.252516         1.993021         0.156458
 O        -2.790229        -0.190445        -0.513902
 C        -1.798921        -0.531150         0.389452
 H         0.977238        -0.042835        -0.222566
 H        -0.729141         0.032308         2.914966
 H        -1.375601         1.605129         2.595624
 H        -3.088046        -0.557072         2.423106
 H        -4.403834         0.416577         0.657961
 H        -3.302470         2.561041        -0.620658
 H        -3.131989         2.774391         0.999700
 H        -0.792904         2.140546        -0.831047
 H        -0.671691         2.835600         0.701876
 H        -1.448328        -1.546651         0.276892
