19
Iteration:  2527
 O         0.611996         0.287125         0.846200
 C        -0.757550         0.673381         0.647246
 C        -1.287915         0.677286         2.145249
 C        -2.473292         0.016044         1.686045
 C        -3.280458         0.680700         0.619775
 C        -2.716335         2.105318         0.325320
 C        -1.232134         1.903845        -0.145238
 O        -2.943231        -0.281883        -0.504874
 C        -1.691325        -0.549519         0.492158
 H         1.006179         0.331424         0.037220
 H        -0.612172        -0.048813         2.603791
 H        -1.413575         1.624481         2.606725
 H        -2.982862        -0.719744         2.489291
 H        -4.339862         0.611759         0.873121
 H        -3.409731         2.623685        -0.287361
 H        -3.009223         2.698472         1.218496
 H        -1.152296         1.778977        -1.197228
 H        -0.642063         2.740978         0.142862
 H        -1.254004        -1.494030         0.247312
