19
Iteration:  3938charge 0 multiplicity 1
 O         0.586971         0.332842         0.739708
 C        -0.777523         0.624854         0.761167
 C        -1.266878         0.682973         2.242879
 C        -2.533048        -0.101178         1.694293
 C        -3.301832         0.749715         0.590470
 C        -2.723144         2.063137         0.265803
 C        -1.187593         1.819787        -0.074831
 O        -2.881305        -0.208610        -0.482043
 C        -1.763943        -0.552533         0.430086
 H         1.138960         1.050866         0.177388
 H        -0.670536        -0.053957         2.874789
 H        -1.223196         1.772367         2.648388
 H        -3.146976        -0.877662         2.228326
 H        -4.361322         1.078962         0.587138
 H        -2.965649         2.465661        -0.755702
 H        -2.855253         2.742086         1.160506
 H        -0.966532         1.688177        -1.124436
 H        -0.512698         2.648928         0.306533
 H        -1.462385        -1.631883         0.299222
