19
Iteration:  4477charge 0 multiplicity 1
 O         0.589123         0.284933         0.736450
 C        -0.744729         0.634581         0.803334
 C        -1.241029         0.658007         2.222277
 C        -2.563476        -0.089765         1.729761
 C        -3.321681         0.680387         0.557170
 C        -2.796445         2.092500         0.258991
 C        -1.154625         1.885838        -0.089702
 O        -2.743331        -0.122188        -0.460127
 C        -1.787726        -0.514392         0.450031
 H         0.675912        -0.115528        -0.223269
 H        -0.762341        -0.158624         2.728889
 H        -1.392546         1.601483         2.716440
 H        -3.302188        -0.693695         2.245002
 H        -4.408673         0.549232         0.569009
 H        -3.426577         2.374075        -0.636498
 H        -3.079256         2.874434         0.992302
 H        -1.022543         1.852229        -1.127690
 H        -0.620659         2.698571         0.394446
 H        -1.246672        -1.429714         0.185238
