19
Iteration:   193charge 0 multiplicity 1
 O         0.630985         0.425839         0.894049
 C        -0.731206         0.670599         0.746522
 C        -1.345365         0.693930         2.256910
 C        -2.502903        -0.171503         1.625584
 C        -3.281374         0.770149         0.643266
 C        -2.669356         2.171373         0.303321
 C        -1.252392         1.774093        -0.253389
 O        -2.879606        -0.194230        -0.421871
 C        -1.738128        -0.605883         0.352967
 H         0.765083        -0.334888         0.269408
 H        -0.709555        -0.000177         2.817856
 H        -1.569946         1.673727         2.689338
 H        -3.084995        -0.949953         2.167759
 H        -4.357988         0.837131         0.823501
 H        -3.350312         2.571077        -0.493048
 H        -2.658803         2.851356         1.145358
 H        -1.397314         1.313481        -1.274629
 H        -0.493254         2.634942        -0.531883
 H        -1.290166        -1.608295         0.179968
