19
Iteration:  4301
 O         0.637310         0.286878         0.452424
 C        -0.678353         0.617876         0.828703
 C        -1.334140         0.657998         2.296660
 C        -2.628918        -0.087222         1.694410
 C        -3.335791         0.697889         0.594659
 C        -2.711325         2.044709         0.127963
 C        -1.189415         1.910356         0.053254
 O        -2.817166        -0.189916        -0.415146
 C        -1.758832        -0.530694         0.503013
 H         1.126696         0.791880         1.004395
 H        -0.884426        -0.014175         3.046598
 H        -1.370604         1.575161         2.924183
 H        -3.207651        -0.763942         2.364278
 H        -4.439030         0.817980         0.721283
 H        -3.211273         2.466732        -0.844288
 H        -3.012806         2.914826         0.847786
 H        -0.909857         1.776262        -1.005251
 H        -0.675221         2.965808         0.313233
 H        -1.271745        -1.502014         0.278499
