19
Iteration:  1201charge 0 multiplicity 1
 O         0.614646         0.223021         0.708968
 C        -0.739489         0.655957         0.756504
 C        -1.347244         0.722752         2.229171
 C        -2.543728        -0.020085         1.665788
 C        -3.335426         0.682962         0.586956
 C        -2.741894         2.106967         0.288476
 C        -1.204098         1.861033        -0.072619
 O        -2.887105        -0.229453        -0.477535
 C        -1.630959        -0.532350         0.439735
 H         1.208958         0.853527         0.453191
 H        -0.710748         0.138469         2.896866
 H        -1.507841         1.731645         2.598462
 H        -3.008865        -0.804871         2.431400
 H        -4.425673         0.751120         0.627379
 H        -3.364893         2.512263        -0.577367
 H        -2.731772         2.680829         1.299481
 H        -1.059647         1.565245        -1.121123
 H        -0.642533         2.813374         0.105895
 H        -1.262339        -1.553793         0.293283
