19
Iteration:  2629charge 0 multiplicity 1
 O         0.651057         0.242185         0.650880
 C        -0.689614         0.610291         0.712600
 C        -1.357694         0.761141         2.211582
 C        -2.479449        -0.041487         1.665568
 C        -3.356615         0.665898         0.557714
 C        -2.738774         2.061091         0.276398
 C        -1.187528         1.888293         0.051161
 O        -2.904729        -0.217054        -0.444261
 C        -1.733532        -0.518251         0.479845
 H         1.171657         0.942355         0.110100
 H        -0.731828         0.110747         2.846701
 H        -1.445033         1.782116         2.663936
 H        -3.080574        -0.638237         2.379058
 H        -4.477575         0.674377         0.475717
 H        -3.172932         2.253479        -0.718766
 H        -3.088883         2.639460         1.132840
 H        -1.042110         1.917699        -1.023795
 H        -0.580078         2.665265         0.388813
 H        -1.351824        -1.561541         0.421556
