19
Iteration:  4133charge 0 multiplicity 1
 O         0.621991         0.288915         0.619149
 C        -0.826433         0.600551         0.739361
 C        -1.367956         0.726979         2.158908
 C        -2.588545        -0.078623         1.711634
 C        -3.287327         0.702600         0.503028
 C        -2.673013         2.130027         0.329044
 C        -1.188874         1.909653         0.074971
 O        -2.758791        -0.210625        -0.439181
 C        -1.721455        -0.587417         0.470571
 H         0.826277         0.374515        -0.360995
 H        -0.752778         0.167146         2.881710
 H        -1.649156         1.568991         2.727659
 H        -3.189892        -0.656086         2.433246
 H        -4.359804         0.761924         0.343532
 H        -3.382889         2.518798        -0.479156
 H        -2.833969         2.645603         1.285371
 H        -1.057564         1.802447        -1.057587
 H        -0.477438         2.728880         0.414248
 H        -1.461623        -1.693776         0.522153
