19
Iteration:  4135charge 0 multiplicity 1
 O         0.625460         0.284722         0.623680
 C        -0.834616         0.613794         0.734122
 C        -1.363623         0.722063         2.146768
 C        -2.585852        -0.062348         1.692812
 C        -3.296701         0.691002         0.495458
 C        -2.674798         2.115031         0.342345
 C        -1.175153         1.907812         0.087116
 O        -2.746349        -0.215316        -0.432715
 C        -1.743300        -0.589316         0.462477
 H         0.852115         0.319635        -0.416441
 H        -0.793892         0.191052         2.874169
 H        -1.618277         1.633056         2.705663
 H        -3.170458        -0.657210         2.454136
 H        -4.357711         0.765313         0.412381
 H        -3.370451         2.543433        -0.438483
 H        -2.900327         2.688570         1.256930
 H        -1.118974         1.831584        -1.014200
 H        -0.444806         2.754344         0.426099
 H        -1.425037        -1.642027         0.590155
