19
Iteration:  2586
 O         0.608575         0.385012         0.511859
 C        -0.798697         0.603568         0.827626
 C        -1.263944         0.621441         2.276633
 C        -2.615197         0.012137         1.750297
 C        -3.312971         0.767350         0.464145
 C        -2.740896         2.103257         0.216567
 C        -1.198849         1.872375         0.041022
 O        -2.709293        -0.261688        -0.411818
 C        -1.778426        -0.597504         0.551012
 H         0.621266         0.499867        -0.535069
 H        -0.813089        -0.113214         2.975216
 H        -1.370653         1.489527         3.019275
 H        -3.163170        -0.710930         2.327785
 H        -4.435451         0.725843         0.557562
 H        -3.028041         2.424263        -0.841801
 H        -3.006933         2.721875         1.101492
 H        -1.038337         1.723889        -1.030334
 H        -0.610030         2.637768         0.401474
 H        -1.407258        -1.643337         0.337596
