19
Iteration:  4296charge 0 multiplicity 1
 O         0.591007         0.280005         0.437970
 C        -0.696714         0.605644         0.868801
 C        -1.369805         0.653697         2.331611
 C        -2.554803        -0.090463         1.676555
 C        -3.327639         0.740483         0.576090
 C        -2.733053         2.051522         0.168719
 C        -1.193184         1.935897         0.003317
 O        -2.802108        -0.184075        -0.417127
 C        -1.752450        -0.552439         0.511329
 H         1.293183         0.846191         0.979035
 H        -1.028646        -0.065745         3.093477
 H        -1.429554         1.655950         2.794421
 H        -3.137303        -0.815865         2.256256
 H        -4.385260         0.815865         0.828438
 H        -3.103217         2.258903        -0.834336
 H        -2.879319         2.886750         0.805845
 H        -0.864922         1.732821        -1.022339
 H        -0.729834         2.820532         0.300008
 H        -1.203823        -1.488854         0.260863
