19
Iteration:  4418charge 0 multiplicity 1
 O         0.677682         0.320554         0.680595
 C        -0.684840         0.599293         0.739953
 C        -1.251094         0.669492         2.128992
 C        -2.609155         0.021505         1.662499
 C        -3.294617         0.736371         0.503876
 C        -2.772010         2.045408         0.282764
 C        -1.181451         1.883900         0.036734
 O        -2.862929        -0.287217        -0.478442
 C        -1.845183        -0.542653         0.532634
 H         1.050707         0.969134         0.168605
 H        -0.878903        -0.189975         2.752151
 H        -1.286758         1.485735         2.912869
 H        -3.306732        -0.441847         2.414803
 H        -4.372604         0.643983         0.517276
 H        -3.179571         2.674377        -0.529748
 H        -2.861110         2.594392         1.203944
 H        -0.868178         2.032858        -0.991842
 H        -0.691573         2.625050         0.618730
 H        -1.356864        -1.575478         0.483610
