19
Iteration:   354charge 0 multiplicity 1
 O         0.613104         0.426018         0.604827
 C        -0.745269         0.654812         0.803049
 C        -1.378358         0.639644         2.227273
 C        -2.608087        -0.064454         1.665435
 C        -3.279680         0.772657         0.521485
 C        -2.649488         2.146541         0.325738
 C        -1.213854         1.768898        -0.157131
 O        -2.808333        -0.259059        -0.405574
 C        -1.719865        -0.574779         0.495453
 H         1.014706         0.285788         1.514512
 H        -0.785249        -0.055940         2.742692
 H        -1.599431         1.540077         2.725535
 H        -3.271464        -0.771080         2.270539
 H        -4.402514         0.880128         0.471991
 H        -3.284336         2.723547        -0.441274
 H        -2.640462         2.644524         1.272020
 H        -1.205303         1.318065        -1.188917
 H        -0.553772         2.521782        -0.189246
 H        -1.386602        -1.555597         0.491860
