19
Iteration:  4510
 O         0.685217         0.266691         0.751956
 C        -0.697701         0.593172         0.780713
 C        -1.324558         0.746329         2.193646
 C        -2.552438        -0.021989         1.618828
 C        -3.316184         0.698796         0.497301
 C        -2.751246         2.160115         0.426426
 C        -1.224800         1.862065        -0.044973
 O        -2.833408        -0.274314        -0.490905
 C        -1.772263        -0.564527         0.398260
 H         0.957365         0.328886        -0.231410
 H        -0.955263         0.269933         3.124908
 H        -1.411837         1.767861         2.636204
 H        -3.312758        -0.486790         2.253912
 H        -4.413962         0.706990         0.502165
 H        -3.379267         2.675965        -0.347775
 H        -2.815302         2.510185         1.477390
 H        -1.091400         1.857648        -1.091092
 H        -0.545628         2.680358         0.283727
 H        -1.361708        -1.565286         0.213035
