19
Iteration:  2590charge 0 multiplicity 1
 O         0.592868         0.365672         0.514815
 C        -0.797817         0.600502         0.813416
 C        -1.241813         0.622439         2.277827
 C        -2.591617        -0.008150         1.760040
 C        -3.313539         0.737965         0.431410
 C        -2.759137         2.114114         0.221912
 C        -1.208227         1.893466         0.021688
 O        -2.720307        -0.261260        -0.432616
 C        -1.780652        -0.584372         0.590682
 H         0.654516         0.544249        -0.370422
 H        -0.756878        -0.135910         2.938336
 H        -1.347602         1.423946         2.994747
 H        -3.146983        -0.736444         2.325278
 H        -4.384492         0.793372         0.507469
 H        -3.010751         2.601441        -0.748472
 H        -3.085967         2.817079         1.017426
 H        -1.081948         1.746286        -1.088998
 H        -0.462289         2.695368         0.553546
 H        -1.397920        -1.614258         0.590541
