19
Iteration:   232charge 0 multiplicity 1
 O         0.684635         0.278055         0.618028
 C        -0.736487         0.563431         0.825834
 C        -1.304051         0.766502         2.245550
 C        -2.567099         0.048876         1.659291
 C        -3.357929         0.678433         0.512135
 C        -2.762656         2.091828         0.214682
 C        -1.212099         1.928551         0.064620
 O        -2.792854        -0.267142        -0.452139
 C        -1.763703        -0.618045         0.513295
 H         0.932989         0.376093        -0.385822
 H        -0.802415         0.171836         2.995716
 H        -1.305784         1.804111         2.645382
 H        -3.199350        -0.542121         2.349073
 H        -4.483606         0.602339         0.396229
 H        -3.289463         2.577745        -0.663613
 H        -2.931512         2.757488         1.106851
 H        -0.972447         1.864831        -1.001685
 H        -0.659415         2.667069         0.518052
 H        -1.480683        -1.656448         0.402792
