19
Iteration:   436charge 0 multiplicity 1
 O         0.569154         0.263178         0.620615
 C        -0.760054         0.737304         0.787192
 C        -1.323104         0.736843         2.248020
 C        -2.582017        -0.035225         1.676306
 C        -3.342242         0.679081         0.505130
 C        -2.655845         2.019045         0.149441
 C        -1.144027         2.007319         0.123606
 O        -2.830270        -0.379047        -0.411341
 C        -1.725220        -0.469727         0.476023
 H         0.523919        -0.325763        -0.266100
 H        -0.647092         0.143810         2.957603
 H        -1.356371         1.640170         2.934270
 H        -3.211967        -0.719593         2.153978
 H        -4.425923         0.761424         0.648999
 H        -2.879562         2.443456        -0.799776
 H        -3.162180         2.801622         0.838434
 H        -0.916374         1.943083        -0.886994
 H        -0.592063         2.902427         0.571949
 H        -1.140865        -1.517969         0.352386
