19
Iteration:  2649charge 0 multiplicity 1
 O         0.663697         0.309720         0.659532
 C        -0.716845         0.631784         0.829876
 C        -1.321541         0.736591         2.218900
 C        -2.535395        -0.172414         1.715677
 C        -3.343875         0.732260         0.709802
 C        -2.681539         2.069902         0.222269
 C        -1.199130         1.840579        -0.088023
 O        -2.854594        -0.217204        -0.469584
 C        -1.828802        -0.571593         0.385857
 H         1.048289         1.229856         0.318629
 H        -0.733713         0.330773         3.011446
 H        -1.712789         1.739899         2.351483
 H        -3.327497        -0.898604         2.341833
 H        -4.458079         0.882742         0.737389
 H        -3.227600         2.485763        -0.640823
 H        -2.791554         2.782568         1.110486
 H        -0.849608         1.702712        -1.130335
 H        -0.488792         2.845894         0.239177
 H        -1.254272        -1.480506         0.130950
