19
Iteration:   728
 O         0.639653         0.265052         0.620539
 C        -0.754197         0.611371         0.743702
 C        -1.200797         0.693466         2.241186
 C        -2.586009         0.082859         1.704725
 C        -3.375166         0.712044         0.451445
 C        -2.847166         2.095614         0.212430
 C        -1.253291         1.901870         0.082509
 O        -2.717298        -0.276256        -0.449230
 C        -1.744608        -0.510169         0.590786
 H         0.759132        -0.409797        -0.029464
 H        -0.810294        -0.122723         2.825199
 H        -1.139519         1.577397         2.831288
 H        -3.309872        -0.485288         2.406796
 H        -4.455437         0.417958         0.441157
 H        -3.152905         2.423219        -0.917754
 H        -3.179963         2.875205         0.909596
 H        -0.877775         1.875710        -1.000938
 H        -0.589321         2.718038         0.476418
 H        -1.239335        -1.414760         0.437424
