19
Iteration:  3431
 O         0.650573         0.196589         0.531827
 C        -0.748059         0.563751         0.785165
 C        -1.250853         0.735704         2.185487
 C        -2.620903         0.043308         1.702835
 C        -3.395288         0.724540         0.492810
 C        -2.771627         2.074601         0.313946
 C        -1.253563         1.866859         0.134085
 O        -2.722471        -0.264822        -0.490061
 C        -1.738172        -0.526295         0.480392
 H         1.227970         0.863186         0.664651
 H        -0.789430        -0.078386         2.770490
 H        -1.405513         1.583876         2.835994
 H        -3.191959        -0.461042         2.485056
 H        -4.503288         0.657303         0.403134
 H        -3.191486         2.641328        -0.574697
 H        -2.998496         2.867793         1.023505
 H        -1.066580         2.176074        -0.928929
 H        -0.784462         2.826604         0.438759
 H        -1.177948        -1.470243         0.508500
