19
Iteration:    79
 O         0.639090         0.319373         0.521988
 C        -0.740839         0.621429         0.781979
 C        -1.229153         0.690144         2.287732
 C        -2.512251        -0.040331         1.692742
 C        -3.353993         0.737284         0.491215
 C        -2.775832         2.126321         0.121202
 C        -1.188962         1.937952         0.097124
 O        -2.853796        -0.269412        -0.427094
 C        -1.776672        -0.649919         0.527738
 H         1.068462         0.076884         1.459663
 H        -0.726351         0.033304         2.955662
 H        -1.504084         1.651218         2.644039
 H        -3.185117        -0.622534         2.320189
 H        -4.485794         0.737715         0.523239
 H        -3.094838         2.468714        -0.898630
 H        -3.073976         2.901576         0.739207
 H        -0.781507         2.074306        -0.949978
 H        -0.730504         2.801924         0.619327
 H        -1.492950        -1.682724         0.502301
