19
Iteration:  4970
 O         0.721913         0.337284         0.627765
 C        -0.690128         0.556553         0.738239
 C        -1.352071         0.649295         2.232916
 C        -2.686951        -0.014200         1.636490
 C        -3.346160         0.763106         0.463236
 C        -2.686086         2.082740         0.304946
 C        -1.245149         1.863841         0.097085
 O        -2.803637        -0.245686        -0.471203
 C        -1.746755        -0.500142         0.522927
 H         0.961585         0.388965        -0.412037
 H        -1.026428        -0.167620         2.917358
 H        -1.323879         1.588647         2.728212
 H        -3.141177        -0.610816         2.427150
 H        -4.447456         0.794299         0.376569
 H        -3.110522         2.698460        -0.493801
 H        -2.923205         2.422043         1.318657
 H        -1.059301         1.884728        -1.015579
 H        -0.627924         2.607169         0.632264
 H        -1.326767        -1.567980         0.503753
