19
Iteration:  1819charge 0 multiplicity 1
 O         0.607275         0.494134         0.724332
 C        -0.799966         0.614845         0.769424
 C        -1.357029         0.591771         2.349630
 C        -2.612331        -0.153090         1.687667
 C        -3.245979         0.768517         0.562570
 C        -2.565045         2.118089         0.347276
 C        -1.179102         1.775859        -0.166907
 O        -2.827369        -0.197308        -0.520875
 C        -1.826404        -0.628867         0.429493
 H         0.869296         0.664067        -0.123099
 H        -0.677233        -0.196737         2.868943
 H        -1.398171         1.597836         2.940902
 H        -3.331091        -0.716071         2.324089
 H        -4.343739         0.869284         0.588069
 H        -3.293771         2.746193        -0.298037
 H        -2.604263         2.741019         1.246228
 H        -1.165888         1.811819        -1.270831
 H        -0.501461         2.645537         0.025664
 H        -1.377653        -1.640251         0.135050
