19
Iteration:  3598charge 0 multiplicity 1
 O         0.653996         0.239399         0.597493
 C        -0.750765         0.634603         0.721656
 C        -1.205623         0.608990         2.194946
 C        -2.573905         0.059808         1.678904
 C        -3.361354         0.680703         0.524656
 C        -2.751564         2.031174         0.172737
 C        -1.207367         1.949256         0.100590
 O        -2.820278        -0.214283        -0.412012
 C        -1.848690        -0.570510         0.534601
 H         1.137536         1.130941         0.909984
 H        -0.629520        -0.051580         2.876830
 H        -1.122142         1.613995         2.552715
 H        -3.097493        -0.680467         2.221030
 H        -4.498123         0.512482         0.555490
 H        -2.953841         2.488808        -0.812451
 H        -3.135024         2.775055         0.923156
 H        -0.932417         2.200365        -0.944534
 H        -0.661283         2.812096         0.568063
 H        -1.434418        -1.623096         0.480504
