19
Iteration:  3258charge 0 multiplicity 1
 O         0.660423         0.343281         0.621641
 C        -0.720700         0.572983         0.771087
 C        -1.228098         0.649910         2.203843
 C        -2.600120        -0.017480         1.647035
 C        -3.347354         0.729341         0.556508
 C        -2.706366         2.120907         0.322670
 C        -1.221327         1.844470        -0.005050
 O        -2.850164        -0.216769        -0.500494
 C        -1.763959        -0.616314         0.483680
 H         1.059415         1.168858         1.102218
 H        -0.844834        -0.216695         2.797853
 H        -1.514323         1.546842         2.700003
 H        -3.142064        -0.557987         2.330127
 H        -4.464819         0.912300         0.508679
 H        -2.934062         2.685072        -0.591547
 H        -3.129674         2.747134         1.154968
 H        -1.123904         1.610045        -1.086859
 H        -0.646181         2.659290         0.431397
 H        -1.540669        -1.672516         0.389298
