19
Iteration:  2912charge 0 multiplicity 1
 O         0.619372         0.375935         0.484473
 C        -0.737910         0.647834         0.828974
 C        -1.368225         0.570286         2.262009
 C        -2.562881        -0.031247         1.727558
 C        -3.319912         0.710825         0.507857
 C        -2.632771         2.118813         0.219158
 C        -1.207174         1.859098         0.041247
 O        -2.819041        -0.275214        -0.472206
 C        -1.791113        -0.556577         0.562609
 H         1.066135         1.163848         0.562409
 H        -0.834734        -0.196192         2.867503
 H        -1.526127         1.594009         2.771814
 H        -3.308189        -0.648427         2.422447
 H        -4.387929         0.907886         0.487425
 H        -3.129057         2.653529        -0.554699
 H        -2.764926         2.677576         1.210540
 H        -1.045041         1.632506        -1.019219
 H        -0.477580         2.678110         0.178117
 H        -1.334026        -1.590743         0.516661
