19
Iteration:  1587
 O         0.603882         0.327350         0.385993
 C        -0.792059         0.620971         0.862071
 C        -1.290761         0.634661         2.339410
 C        -2.599730         0.012267         1.718918
 C        -3.257501         0.751334         0.403653
 C        -2.698374         2.094488         0.182498
 C        -1.113660         1.887905         0.259958
 O        -2.812232        -0.335973        -0.488308
 C        -1.834167        -0.563167         0.541839
 H         0.841183         1.202058         0.190981
 H        -0.855946        -0.110102         3.017216
 H        -1.367917         1.642653         2.848165
 H        -3.280448        -0.553523         2.310331
 H        -4.337535         0.712581         0.353282
 H        -3.184859         2.519184        -0.736793
 H        -3.206950         2.745535         0.912576
 H        -0.705196         1.783040        -0.794355
 H        -0.522125         2.775590         0.706016
 H        -1.385874        -1.532342         0.560478
