19
Iteration:  2215charge 0 multiplicity 1
 O         0.640149         0.300128         0.691016
 C        -0.718487         0.692331         0.703549
 C        -1.302122         0.653139         2.241767
 C        -2.551700        -0.066389         1.671407
 C        -3.316611         0.757888         0.627466
 C        -2.696442         2.053773         0.271144
 C        -1.227353         1.903554        -0.063781
 O        -2.851153        -0.300178        -0.444198
 C        -1.785203        -0.564159         0.454663
 H         1.142759         0.893740         0.126897
 H        -0.762415         0.004170         2.900405
 H        -1.425771         1.647526         2.744218
 H        -3.157255        -0.641699         2.310274
 H        -4.385442         0.797935         0.680104
 H        -3.303676         2.543231        -0.609613
 H        -2.880798         2.908532         1.027204
 H        -1.176691         1.706099        -1.116861
 H        -0.605597         2.776363         0.296532
 H        -1.269629        -1.488131         0.258659
