19
Iteration:  3852charge 0 multiplicity 1
 O         0.636047         0.248775         0.618380
 C        -0.719443         0.626502         0.753185
 C        -1.286794         0.604432         2.209725
 C        -2.563733        -0.032713         1.714370
 C        -3.405538         0.694796         0.615578
 C        -2.741402         2.142319         0.135174
 C        -1.168291         1.954900         0.065229
 O        -2.815246        -0.275495        -0.434385
 C        -1.762055        -0.551321         0.423087
 H         1.183769         0.965822         0.816541
 H        -0.735121         0.061180         2.953945
 H        -1.229989         1.626493         2.662480
 H        -3.318204        -0.679064         2.286269
 H        -4.546199         0.864278         0.717940
 H        -3.070671         2.598550        -0.774695
 H        -3.109390         2.988763         0.806115
 H        -0.971774         1.796680        -0.971846
 H        -0.637493         2.798409         0.502031
 H        -1.306366        -1.554614         0.495542
