19
Iteration:  3591charge 0 multiplicity 1
 O         0.697941         0.259061         0.558935
 C        -0.798671         0.598648         0.778315
 C        -1.220018         0.620421         2.213385
 C        -2.603708         0.009968         1.732261
 C        -3.348100         0.707750         0.507528
 C        -2.795031         2.068371         0.163580
 C        -1.160463         1.951946         0.079989
 O        -2.805186        -0.237469        -0.452217
 C        -1.817081        -0.566418         0.520975
 H         1.217752         1.055294         0.793234
 H        -0.660909        -0.110544         2.750531
 H        -1.116965         1.642597         2.669332
 H        -3.281456        -0.587246         2.466370
 H        -4.415242         0.793780         0.706374
 H        -3.139789         2.516119        -0.760546
 H        -3.167172         2.864519         0.820012
 H        -0.983968         1.944254        -0.988058
 H        -0.784394         2.713118         0.778370
 H        -1.409714        -1.557554         0.535793
