19
Iteration:  4378
 O         0.566325         0.201065         0.547648
 C        -0.801503         0.698191         0.860046
 C        -1.439898         0.701535         2.310630
 C        -2.518673        -0.068187         1.683088
 C        -3.283065         0.697653         0.593633
 C        -2.697266         2.018624         0.280928
 C        -1.187860         1.770176        -0.083461
 O        -2.760561        -0.110574        -0.478389
 C        -1.712913        -0.498751         0.458977
 H         1.263731         1.020699         0.541856
 H        -0.669308         0.282863         2.951628
 H        -1.587311         1.703617         2.730246
 H        -3.147654        -0.822090         2.136284
 H        -4.354185         0.705699         0.815635
 H        -3.411076         2.536836        -0.455541
 H        -2.870557         2.836328         1.057885
 H        -0.954217         1.446374        -1.104508
 H        -0.637254         2.787202         0.117628
 H        -1.207349        -1.465518         0.290247
