19
Iteration:     3
 O         0.624088         0.413367         0.588043
 C        -0.751008         0.608541         0.785186
 C        -1.328042         0.678391         2.244888
 C        -2.582024        -0.026140         1.695118
 C        -3.312032         0.729794         0.541602
 C        -2.684148         2.084444         0.247800
 C        -1.203653         1.816807        -0.013659
 O        -2.795945        -0.236045        -0.446375
 C        -1.766057        -0.584094         0.494402
 H         0.859460        -0.335986         1.062272
 H        -0.748754         0.081224         2.899974
 H        -1.427867         1.702561         2.591122
 H        -3.229302        -0.618020         2.341747
 H        -4.416615         0.767566         0.555649
 H        -3.239789         2.545570        -0.689792
 H        -2.859815         2.785845         1.041360
 H        -1.062093         1.654359        -1.148256
 H        -0.609450         2.736314         0.212022
 H        -1.365558        -1.528720         0.358866
