19
Iteration:  2729charge 0 multiplicity 1
 O         0.525356         0.217011         0.465834
 C        -0.782601         0.626933         0.765177
 C        -1.350404         0.744171         2.236072
 C        -2.507866        -0.043268         1.774000
 C        -3.358068         0.700140         0.577103
 C        -2.726626         2.079154         0.227046
 C        -1.158456         1.886281         0.119226
 O        -2.722887        -0.260488        -0.463380
 C        -1.762198        -0.543543         0.457002
 H         1.066496         1.102890         0.694558
 H        -0.722324         0.370016         3.072421
 H        -1.685126         1.730085         2.660983
 H        -3.016586        -0.840573         2.238732
 H        -4.472777         0.813683         0.535778
 H        -3.117573         2.435056        -0.788218
 H        -3.071776         2.795050         1.020150
 H        -0.692262         1.908131        -0.900142
 H        -0.557945         2.760254         0.750801
 H        -1.192940        -1.472623         0.239629
