19
Iteration:  3752
 O         0.660127         0.298728         0.671744
 C        -0.723296         0.593697         0.731778
 C        -1.248859         0.653980         2.236841
 C        -2.576084        -0.028625         1.648735
 C        -3.344393         0.715656         0.535751
 C        -2.802321         2.075967         0.194072
 C        -1.233283         1.962989         0.050873
 O        -2.784809        -0.180486        -0.428771
 C        -1.760030        -0.542827         0.526009
 H         0.878340        -0.411981         0.002295
 H        -0.909190        -0.153974         2.893277
 H        -1.245559         1.589859         2.834068
 H        -3.142809        -0.709554         2.275235
 H        -4.483685         0.704766         0.611244
 H        -3.119686         2.313885        -0.816256
 H        -2.968724         2.818863         0.989734
 H        -1.152439         1.727117        -0.993277
 H        -0.786957         2.835351         0.485189
 H        -1.187411        -1.452615         0.184731
