19
Iteration:   953charge 0 multiplicity 1
 O         0.604497         0.299600         0.658430
 C        -0.709181         0.658646         0.766981
 C        -1.305651         0.749624         2.212871
 C        -2.584203        -0.055515         1.721031
 C        -3.313847         0.652084         0.541347
 C        -2.697998         2.079691         0.289596
 C        -1.192150         1.873934        -0.048666
 O        -2.835425        -0.263194        -0.491418
 C        -1.792619        -0.565873         0.469316
 H         1.219667         1.065451         0.470076
 H        -0.747673         0.051132         2.823101
 H        -1.430831         1.748989         2.648762
 H        -3.106375        -0.681722         2.300987
 H        -4.379751         0.778563         0.629270
 H        -3.216713         2.664087        -0.458198
 H        -2.795592         2.653713         1.293303
 H        -1.142119         1.613826        -1.071786
 H        -0.574172         2.723331         0.302302
 H        -1.361722        -1.600891         0.395553
