19
Iteration:  1958charge 0 multiplicity 1
 O         0.671328         0.343754         0.899203
 C        -0.739066         0.660986         0.687041
 C        -1.263537         0.683991         2.229935
 C        -2.534854        -0.081433         1.652114
 C        -3.312185         0.710689         0.604177
 C        -2.734000         2.066908         0.265838
 C        -1.300321         1.845783        -0.179916
 O        -2.863111        -0.150425        -0.432547
 C        -1.787236        -0.638111         0.389208
 H         1.174885         0.397013        -0.035655
 H        -0.519572        -0.047900         2.621339
 H        -1.259916         1.605029         2.771105
 H        -3.129496        -0.628919         2.433162
 H        -4.419780         0.742379         0.690809
 H        -3.313420         2.762063        -0.436111
 H        -2.618823         2.714481         1.162349
 H        -1.103788         1.665040        -1.288600
 H        -0.712049         2.704861         0.055249
 H        -1.354441        -1.675194         0.226800
