19
Iteration:  2732charge 0 multiplicity 1
 O         0.528803         0.214671         0.471459
 C        -0.786673         0.630675         0.766385
 C        -1.363908         0.737877         2.245542
 C        -2.497959        -0.052198         1.785273
 C        -3.345298         0.668568         0.584214
 C        -2.697222         2.079841         0.213132
 C        -1.143566         1.920487         0.116650
 O        -2.746326        -0.248183        -0.465707
 C        -1.755697        -0.537377         0.456313
 H         1.054501         0.960466         0.652540
 H        -0.663228         0.389290         3.061649
 H        -1.739133         1.702470         2.711699
 H        -3.037418        -0.776240         2.316229
 H        -4.436652         0.707845         0.482293
 H        -3.133574         2.504846        -0.760029
 H        -3.177538         2.862143         0.890824
 H        -0.810456         1.894127        -0.948732
 H        -0.669812         2.656618         0.737754
 H        -1.198233        -1.434014         0.186536
