19
Iteration:  2151charge 0 multiplicity 1
 O         0.548044         0.334042         0.344998
 C        -0.703368         0.575781         0.811566
 C        -1.290744         0.697281         2.384319
 C        -2.593290        -0.032895         1.772370
 C        -3.421183         0.712107         0.507050
 C        -2.719359         2.102954         0.141748
 C        -1.158191         1.846990         0.052275
 O        -2.715476        -0.216038        -0.398579
 C        -1.754405        -0.610102         0.586669
 H         1.152278         0.949959         0.567540
 H        -0.832003        -0.015386         3.037573
 H        -1.695695         1.723573         2.728445
 H        -3.199188        -0.752771         2.347865
 H        -4.503303         0.628788         0.481903
 H        -3.073639         2.443207        -0.834886
 H        -3.103608         2.938635         0.754924
 H        -0.790179         1.957502        -0.905393
 H        -0.611548         2.622293         0.656568
 H        -1.351383        -1.577295         0.383611
