19
Iteration:  1830charge 0 multiplicity 1
 O         0.666659         0.476466         0.726680
 C        -0.792530         0.583834         0.741357
 C        -1.381152         0.568390         2.214847
 C        -2.573107        -0.078851         1.662401
 C        -3.328551         0.725137         0.577343
 C        -2.626670         2.122091         0.314731
 C        -1.146856         1.865755        -0.070847
 O        -2.859918        -0.217953        -0.426357
 C        -1.811118        -0.559058         0.412324
 H         0.962286         0.309872        -0.201158
 H        -0.749210        -0.139691         2.902622
 H        -1.613934         1.527334         2.862115
 H        -3.257194        -0.811631         2.133494
 H        -4.431134         0.709887         0.641532
 H        -3.080909         2.679220        -0.583022
 H        -2.487291         2.632593         1.265453
 H        -0.964752         1.411901        -1.064199
 H        -0.479626         2.669040         0.313990
 H        -1.264835        -1.527991         0.141859
