19
Iteration:   644
 O         0.694785         0.327167         0.944402
 C        -0.710529         0.573066         0.741572
 C        -1.207884         0.726500         2.075957
 C        -2.500761        -0.027263         1.737943
 C        -3.391202         0.713596         0.594813
 C        -2.792993         2.046559         0.204071
 C        -1.259907         1.799450        -0.115810
 O        -2.881791        -0.178770        -0.478147
 C        -1.804400        -0.562392         0.417056
 H         1.244596         0.950753         0.400111
 H        -0.786913        -0.095172         2.791291
 H        -1.008772         1.679940         2.660679
 H        -2.929276        -0.604206         2.475504
 H        -4.536217         0.777750         0.794369
 H        -3.190209         2.442054        -0.676954
 H        -2.912205         2.936818         0.917105
 H        -1.292287         1.559175        -1.210744
 H        -0.551180         2.715679        -0.190826
 H        -1.411758        -1.657419         0.160425
