19
Iteration:   976charge 0 multiplicity 1
 O         0.577955         0.189555         0.626925
 C        -0.738945         0.658800         0.747711
 C        -1.266327         0.657358         2.245386
 C        -2.507533        -0.024228         1.710877
 C        -3.323796         0.726596         0.522735
 C        -2.809984         2.079829         0.119520
 C        -1.197004         2.025314         0.092347
 O        -2.802320        -0.325088        -0.396235
 C        -1.769901        -0.510770         0.473679
 H         1.189567         0.807854         0.300402
 H        -0.734750        -0.171136         2.719209
 H        -1.157089         1.654715         2.698019
 H        -3.115564        -0.637061         2.250530
 H        -4.365307         0.770756         0.698904
 H        -3.133325         2.316193        -0.853826
 H        -3.224716         2.905023         0.790136
 H        -0.921824         2.127606        -0.940839
 H        -0.786511         2.764298         0.815899
 H        -1.177353        -1.417709         0.323435
