19
Iteration:  3655charge 0 multiplicity 1
 O         0.573859         0.286784         0.569988
 C        -0.811465         0.658027         0.802370
 C        -1.398139         0.718189         2.236777
 C        -2.569039        -0.048877         1.685251
 C        -3.321804         0.746360         0.619054
 C        -2.662761         2.103781         0.326942
 C        -1.245264         1.742877        -0.115504
 O        -2.722784        -0.173614        -0.496372
 C        -1.715255        -0.561407         0.504214
 H         1.094621         0.994093         0.844274
 H        -0.752433         0.047990         2.747859
 H        -1.409672         1.674729         2.751429
 H        -3.144565        -0.787972         2.343854
 H        -4.458752         0.562897         0.665393
 H        -3.138754         2.585464        -0.494673
 H        -2.705278         2.588310         1.331263
 H        -1.102087         1.427360        -1.186516
 H        -0.572244         2.569900         0.265417
 H        -1.121587        -1.463922         0.276985
