19
Iteration:  3922charge 0 multiplicity 1
 O         0.610920         0.249751         0.665653
 C        -0.759104         0.614383         0.767243
 C        -1.318146         0.650183         2.167678
 C        -2.584905         0.017220         1.727405
 C        -3.351465         0.710355         0.573330
 C        -2.701472         2.109377         0.262250
 C        -1.212770         1.855983        -0.028560
 O        -2.751136        -0.165897        -0.495895
 C        -1.769483        -0.586761         0.495761
 H         1.136112         1.110904         0.447345
 H        -0.646998         0.032383         2.771080
 H        -1.375079         1.480741         2.804664
 H        -3.154401        -0.489806         2.493606
 H        -4.362406         0.317678         0.686860
 H        -3.330682         2.540762        -0.529280
 H        -2.836536         2.776768         1.103496
 H        -1.210432         1.494482        -1.099632
 H        -0.695262         2.800397         0.218038
 H        -1.287683        -1.540615         0.243091
