19
Iteration:  1484
 O         0.606616         0.472389         0.554458
 C        -0.783299         0.587852         0.789314
 C        -1.353279         0.614440         2.202794
 C        -2.601922        -0.036823         1.687264
 C        -3.247277         0.784979         0.563429
 C        -2.632260         2.123188         0.268856
 C        -1.151850         1.831456         0.039669
 O        -2.859935        -0.286570        -0.501853
 C        -1.798907        -0.582692         0.499066
 H         1.139773         0.109292         1.373161
 H        -0.852193        -0.205123         2.755081
 H        -1.282242         1.582512         2.804036
 H        -3.423572        -0.642411         2.205651
 H        -4.336444         0.785045         0.710183
 H        -3.146162         2.475050        -0.596943
 H        -2.871457         2.765194         1.153089
 H        -1.009265         1.642258        -1.050634
 H        -0.320567         2.570886         0.335229
 H        -1.397760        -1.601518         0.293790
