19
Iteration:  4427charge 0 multiplicity 1
 O         0.712952         0.389133         0.647814
 C        -0.706895         0.583571         0.726930
 C        -1.292446         0.644342         2.232676
 C        -2.603462         0.065826         1.731719
 C        -3.390537         0.703789         0.506402
 C        -2.654071         2.036385         0.213318
 C        -1.186472         1.866614         0.113340
 O        -2.898661        -0.299087        -0.480704
 C        -1.794338        -0.575167         0.422814
 H         1.100796         0.856779        -0.017708
 H        -0.983755        -0.269619         2.882845
 H        -1.215312         1.634749         2.858078
 H        -3.304785        -0.450352         2.462198
 H        -4.517803         0.836778         0.478426
 H        -3.164524         2.684111        -0.508706
 H        -2.838415         2.675473         1.146347
 H        -0.892111         1.919574        -1.009357
 H        -0.635897         2.720954         0.649219
 H        -1.413125        -1.642290         0.453363
