19
Iteration:  1590
 O         0.607234         0.326542         0.393169
 C        -0.793249         0.584336         0.873895
 C        -1.283238         0.618418         2.334269
 C        -2.599704         0.024248         1.735960
 C        -3.257042         0.731425         0.403322
 C        -2.708091         2.102380         0.173267
 C        -1.137735         1.920486         0.242330
 O        -2.816240        -0.332166        -0.494188
 C        -1.824874        -0.551926         0.536626
 H         0.937531         1.304035         0.140010
 H        -0.787562        -0.137434         3.036168
 H        -1.343145         1.790735         2.886649
 H        -3.342863        -0.510587         2.309124
 H        -4.370146         0.714798         0.302197
 H        -3.163895         2.519931        -0.762504
 H        -3.054172         2.782521         0.959303
 H        -0.692211         1.733937        -0.757001
 H        -0.586153         2.649150         0.792076
 H        -1.381939        -1.601670         0.544731
