19
Iteration:  1194
 O         0.590131         0.188352         0.651303
 C        -0.706120         0.674040         0.779433
 C        -1.343093         0.742510         2.223077
 C        -2.538767        -0.074095         1.703088
 C        -3.348792         0.691158         0.571198
 C        -2.713978         2.093449         0.242318
 C        -1.218324         1.889912        -0.039103
 O        -2.854061        -0.219679        -0.455300
 C        -1.673521        -0.513229         0.485577
 H         1.184768         0.887078         0.330758
 H        -0.927259         0.184160         3.069728
 H        -1.495130         1.667730         2.781709
 H        -2.963768        -0.888003         2.223766
 H        -4.480874         0.665285         0.541626
 H        -3.253512         2.549611        -0.604967
 H        -2.817492         2.696225         1.059759
 H        -1.091261         1.643352        -1.069376
 H        -0.706735         2.854454         0.142780
 H        -1.092384        -1.492800         0.241159
