19
Iteration:  4743charge 0 multiplicity 1
 O         0.647145         0.249955         0.714854
 C        -0.745524         0.569613         0.759255
 C        -1.325031         0.624269         2.211645
 C        -2.581614        -0.073411         1.723307
 C        -3.355743         0.756682         0.526711
 C        -2.779082         2.159735         0.305692
 C        -1.267835         1.927128        -0.041585
 O        -2.638732        -0.156726        -0.522543
 C        -1.786277        -0.581002         0.492930
 H         0.790023         0.223375        -0.247426
 H        -0.626305        -0.163882         2.728479
 H        -1.295098         1.575327         2.826607
 H        -3.346940        -0.511092         2.411922
 H        -4.462434         0.644892         0.529314
 H        -3.312073         2.709393        -0.525086
 H        -3.149777         2.779829         1.211472
 H        -1.114113         1.795100        -1.090548
 H        -0.533956         2.739179         0.275934
 H        -1.358878        -1.563507         0.507514
