19
Iteration:   848
 O         0.544207         0.161709         0.394311
 C        -0.804742         0.640066         0.831504
 C        -1.394494         0.801228         2.301609
 C        -2.522294        -0.033369         1.711789
 C        -3.233675         0.651459         0.564636
 C        -2.727228         2.023819         0.116080
 C        -1.164050         1.980804         0.134740
 O        -2.770034        -0.236581        -0.442996
 C        -1.757607        -0.573374         0.522364
 H         1.187306         0.946244         0.706553
 H        -0.907425         0.218935         3.092026
 H        -1.549766         1.800194         2.727760
 H        -3.141528        -0.757316         2.465654
 H        -4.312094         0.729095         0.641075
 H        -3.180614         2.271455        -0.927135
 H        -2.984572         2.832682         0.779680
 H        -0.499930         2.257622        -0.709692
 H        -0.923551         2.764874         0.747338
 H        -1.203504        -1.449223         0.490315
