19
Iteration:  3205charge 0 multiplicity 1
 O         0.597085         0.228475         0.634089
 C        -0.771521         0.614862         0.778894
 C        -1.307337         0.654880         2.175127
 C        -2.549736        -0.108079         1.666974
 C        -3.298688         0.748983         0.643376
 C        -2.801748         2.135830         0.255097
 C        -1.193695         1.856342        -0.032743
 O        -2.765697        -0.168429        -0.480628
 C        -1.729806        -0.497932         0.445319
 H         1.143049         0.831455         1.201720
 H        -0.786818         0.085793         2.997977
 H        -1.453917         1.670516         2.619219
 H        -3.130906        -0.752336         2.235461
 H        -4.393900         0.760948         0.579821
 H        -3.205215         2.664562        -0.573820
 H        -3.139264         2.572058         1.228784
 H        -1.166445         1.496383        -1.060290
 H        -0.524395         2.614331         0.214502
 H        -1.188845        -1.448996         0.348573
