19
Iteration:   972
 O         0.577605         0.188139         0.646191
 C        -0.780135         0.656260         0.746590
 C        -1.267983         0.656038         2.221200
 C        -2.485054        -0.019109         1.683131
 C        -3.348314         0.737289         0.518344
 C        -2.788270         2.075870         0.172002
 C        -1.191747         2.009053         0.078491
 O        -2.816145        -0.324726        -0.410389
 C        -1.740459        -0.515721         0.500335
 H         1.237759         0.918730         0.290627
 H        -0.671422        -0.128493         2.672253
 H        -1.208737         1.620119         2.671355
 H        -3.161866        -0.640928         2.358053
 H        -4.488809         0.692059         0.644339
 H        -3.149576         2.379051        -0.902612
 H        -3.162576         2.944582         0.841001
 H        -0.880640         2.135477        -0.960015
 H        -0.760857         2.819757         0.650840
 H        -1.092517        -1.445593         0.361486
