19
Iteration:  1485
 O         0.606032         0.470049         0.560304
 C        -0.783803         0.591694         0.794544
 C        -1.356396         0.614666         2.196045
 C        -2.602502        -0.044646         1.689346
 C        -3.236961         0.781549         0.562442
 C        -2.629745         2.121849         0.274968
 C        -1.149505         1.830601         0.026837
 O        -2.864008        -0.284522        -0.502113
 C        -1.809022        -0.586857         0.499416
 H         1.123959         0.154380         1.351882
 H        -0.855892        -0.209287         2.747527
 H        -1.275443         1.647553         2.827817
 H        -3.398112        -0.684141         2.206485
 H        -4.314471         0.784293         0.703869
 H        -3.150181         2.507930        -0.571749
 H        -2.878105         2.773387         1.153845
 H        -0.984482         1.655729        -1.050369
 H        -0.316735         2.581632         0.310736
 H        -1.386738        -1.564248         0.294859
