19
Iteration:   556
 O         0.696982         0.219289         0.637744
 C        -0.690297         0.553438         0.812186
 C        -1.208227         0.739083         2.221954
 C        -2.559415         0.075173         1.723084
 C        -3.358753         0.689658         0.478577
 C        -2.869579         2.045103         0.100327
 C        -1.249336         1.896832         0.166766
 O        -2.726062        -0.190521        -0.504417
 C        -1.817211        -0.517557         0.553314
 H         0.555051        -0.184572        -0.190769
 H        -0.620127         0.039729         3.005834
 H        -1.236136         1.840703         2.583167
 H        -3.173512        -0.347522         2.443608
 H        -4.492346         0.508303         0.584267
 H        -3.160095         2.153989        -0.927553
 H        -3.429943         2.896062         0.835415
 H        -0.942174         2.133708        -0.895535
 H        -0.868123         2.727555         0.815981
 H        -1.499053        -1.692418         0.377561
