19
Iteration:   219charge 0 multiplicity 1
 O         0.614311         0.332029         0.749658
 C        -0.735617         0.644514         0.735214
 C        -1.297201         0.758296         2.250174
 C        -2.565814        -0.063146         1.754678
 C        -3.355549         0.704224         0.543956
 C        -2.735984         2.047383         0.263240
 C        -1.166745         1.834832        -0.110818
 O        -2.799531        -0.211818        -0.480357
 C        -1.776039        -0.552791         0.448586
 H         0.749575        -0.030757        -0.136196
 H        -0.769907        -0.030084         2.840825
 H        -1.385243         1.776268         2.701396
 H        -3.097874        -0.685509         2.452967
 H        -4.416658         0.699832         0.654912
 H        -3.240314         2.531359        -0.533387
 H        -2.861076         2.717803         1.241477
 H        -0.932701         1.765777        -1.138675
 H        -0.647025         2.706236         0.195082
 H        -1.215139        -1.534985         0.234999
