19
Iteration:  1080charge 0 multiplicity 1
 O         0.606513         0.211769         0.723511
 C        -0.753033         0.657578         0.727579
 C        -1.391297         0.833453         2.226672
 C        -2.454510        -0.087031         1.723751
 C        -3.323449         0.666702         0.670721
 C        -2.734194         2.057189         0.348342
 C        -1.230992         1.804577        -0.179961
 O        -2.778706        -0.123894        -0.471535
 C        -1.756733        -0.590821         0.360240
 H         1.283181         0.985963         1.014098
 H        -0.627037         0.564554         2.936167
 H        -1.773027         1.727822         2.717818
 H        -3.083246        -0.905797         2.328916
 H        -4.411700         0.628518         0.529518
 H        -3.365882         2.490908        -0.464719
 H        -2.670881         2.681978         1.099047
 H        -1.238552         1.499252        -1.268043
 H        -0.629017         2.729199        -0.184577
 H        -1.372821        -1.595852         0.171782
