19
Iteration:  4346charge 0 multiplicity 1
 O         0.689368         0.302155         0.590972
 C        -0.816706         0.606469         0.775683
 C        -1.297747         0.654459         2.190799
 C        -2.549407        -0.010765         1.738502
 C        -3.291405         0.763099         0.485509
 C        -2.762192         2.124180         0.282643
 C        -1.232735         1.892175         0.018276
 O        -2.846964        -0.280059        -0.441474
 C        -1.780140        -0.618630         0.445169
 H         1.213038         0.825926         1.107383
 H        -0.568177         0.095991         2.802541
 H        -1.347944         1.666646         2.618131
 H        -3.281570        -0.571015         2.288655
 H        -4.393597         0.719052         0.580171
 H        -3.162994         2.703191        -0.577892
 H        -2.803169         2.829587         1.201731
 H        -0.956488         1.680353        -1.036988
 H        -0.445803         2.667204         0.395249
 H        -1.347719        -1.592535         0.421801
