19
Iteration:  2507
 O         0.630973         0.284298         0.707517
 C        -0.755716         0.701904         0.772008
 C        -1.225521         0.745399         2.214771
 C        -2.554883        -0.110995         1.712857
 C        -3.367390         0.721860         0.561113
 C        -2.692251         2.057312         0.301436
 C        -1.238270         1.844510        -0.101342
 O        -2.820897        -0.243318        -0.424817
 C        -1.763239        -0.523173         0.418002
 H         0.958358         0.698153        -0.145827
 H        -0.740481         0.052406         2.881724
 H        -1.509140         1.721263         2.650794
 H        -3.164884        -0.756426         2.449603
 H        -4.477402         0.654041         0.632930
 H        -3.167058         2.690507        -0.483727
 H        -2.803253         2.625319         1.287752
 H        -1.163522         1.579123        -1.130643
 H        -0.723522         2.694951        -0.029695
 H        -1.375943        -1.542482         0.261497
