19
Iteration:  1084
 O         0.615421         0.213045         0.721236
 C        -0.773622         0.667145         0.742061
 C        -1.390958         0.817750         2.258544
 C        -2.450051        -0.128295         1.736645
 C        -3.319167         0.660764         0.657487
 C        -2.716648         2.076500         0.324963
 C        -1.232390         1.832703        -0.188526
 O        -2.785230        -0.135254        -0.465782
 C        -1.772814        -0.582503         0.349331
 H         1.062405         0.953931         1.010183
 H        -0.498123         0.460380         2.840431
 H        -1.808693         1.836399         2.503544
 H        -2.954184        -0.791912         2.325792
 H        -4.462354         0.601521         0.573946
 H        -3.370757         2.381200        -0.509194
 H        -2.632052         2.947023         1.153028
 H        -1.164417         1.472527        -1.162151
 H        -0.609066         2.739801        -0.142914
 H        -1.353250        -1.663056         0.194458
