19
Iteration:  1681
 O         0.627834         0.330200         0.623401
 C        -0.747699         0.595431         0.751926
 C        -1.318524         0.642035         2.207978
 C        -2.570486        -0.048691         1.673458
 C        -3.329442         0.764791         0.543607
 C        -2.692513         2.108487         0.362251
 C        -1.215794         1.865590        -0.088507
 O        -2.769340        -0.219851        -0.473582
 C        -1.819986        -0.635651         0.473652
 H         1.073420         0.972515         1.313524
 H        -0.691053        -0.055333         2.796621
 H        -1.449831         1.767561         2.751769
 H        -3.125901        -0.688544         2.418155
 H        -4.427219         0.846086         0.426561
 H        -3.329424         2.656157        -0.280040
 H        -2.807783         2.789735         1.245668
 H        -1.077559         1.719071        -1.115354
 H        -0.541009         2.680276         0.037755
 H        -1.401121        -1.646040         0.346591
