19
Iteration:  1338charge 0 multiplicity 1
 O         0.582950         0.335966         0.553576
 C        -0.726900         0.661282         0.790945
 C        -1.347599         0.607198         2.243509
 C        -2.581448        -0.085714         1.658826
 C        -3.319252         0.727445         0.553414
 C        -2.676166         2.094218         0.265926
 C        -1.181143         1.853851        -0.046689
 O        -2.829394        -0.222829        -0.444906
 C        -1.759515        -0.529393         0.525321
 H         1.161235         0.879492         1.191896
 H        -0.742470        -0.138114         2.880635
 H        -1.559226         1.507465         2.923873
 H        -3.217997        -0.628399         2.304830
 H        -4.442142         0.807221         0.645693
 H        -3.059285         2.468196        -0.710798
 H        -2.725075         2.768403         1.070098
 H        -0.965637         1.658987        -1.142768
 H        -0.647052         2.727950         0.317408
 H        -1.134567        -1.493601         0.316533
