19
Iteration:  3161
 O         0.549450         0.222789         0.538207
 C        -0.722424         0.629641         0.781907
 C        -1.353369         0.632650         2.209049
 C        -2.600385        -0.003697         1.694011
 C        -3.361699         0.692487         0.518022
 C        -2.715864         2.104979         0.234805
 C        -1.110719         1.977717         0.132624
 O        -2.784164        -0.293431        -0.466633
 C        -1.738438        -0.510992         0.507015
 H         1.075606         1.011917         0.422308
 H        -0.671609         0.068923         2.924879
 H        -1.372405         1.690397         2.616951
 H        -3.210293        -0.615571         2.238907
 H        -4.484771         0.523360         0.533288
 H        -3.201116         2.446878        -0.667426
 H        -2.865009         2.914764         1.020641
 H        -0.749192         1.804779        -0.873125
 H        -0.752757         2.743598         0.753137
 H        -1.157272        -1.424760         0.389729
