19
Iteration:  2839charge 0 multiplicity 1
 O         0.572087         0.209459         0.599598
 C        -0.761218         0.708708         0.761794
 C        -1.291015         0.687608         2.268754
 C        -2.508026        -0.025204         1.705899
 C        -3.312031         0.694976         0.578856
 C        -2.727354         2.077440         0.322794
 C        -1.208622         1.870128        -0.020840
 O        -2.788392        -0.240310        -0.515822
 C        -1.777428        -0.495257         0.471045
 H         1.237525         0.878287         0.755972
 H        -0.832540        -0.069647         2.868044
 H        -1.618051         1.623552         2.651235
 H        -3.090318        -0.752704         2.184654
 H        -4.420055         0.600245         0.620292
 H        -3.142973         2.581822        -0.585891
 H        -2.914450         2.620747         1.213433
 H        -0.945772         1.645530        -1.062379
 H        -0.859565         2.917457         0.106060
 H        -1.299834        -1.460349         0.284670
