19
Iteration:  2869
 O         0.606572         0.186920         0.617014
 C        -0.742683         0.645492         0.742813
 C        -1.228172         0.649098         2.151990
 C        -2.529788        -0.023234         1.669917
 C        -3.314824         0.737216         0.548512
 C        -2.810456         2.055379         0.192756
 C        -1.217232         1.979650         0.114608
 O        -2.775951        -0.189847        -0.396338
 C        -1.800168        -0.584791         0.482348
 H         1.310045         0.822549         0.554250
 H        -0.671918         0.154286         2.965618
 H        -1.418022         1.653893         2.642896
 H        -3.203033        -0.751520         2.338181
 H        -4.393442         0.561617         0.561647
 H        -3.124466         2.354122        -0.780626
 H        -3.221943         2.767252         0.945058
 H        -0.882260         1.985851        -0.905853
 H        -0.967303         2.879430         0.537393
 H        -1.371846        -1.575738         0.213199
