19
Iteration:  1040
 O         0.610239         0.338966         0.532194
 C        -0.705416         0.649410         0.750717
 C        -1.256950         0.673859         2.319121
 C        -2.588177         0.001634         1.727171
 C        -3.311291         0.750791         0.467663
 C        -2.733750         2.110753         0.204805
 C        -1.188388         1.895054         0.010518
 O        -2.781462        -0.352100        -0.453427
 C        -1.841872        -0.606878         0.565576
 H         1.138301         1.070943         0.580678
 H        -0.893884        -0.222696         2.836617
 H        -1.393999         1.579066         2.904322
 H        -3.224097        -0.498150         2.386364
 H        -4.431551         0.700280         0.593730
 H        -3.178671         2.679247        -0.660683
 H        -3.117986         2.661199         1.239942
 H        -1.033318         1.805151        -1.036397
 H        -0.566870         2.723634         0.380424
 H        -1.421116        -1.673326         0.399782
