19
Iteration:  3830charge 0 multiplicity 1
 O         0.659013         0.268692         0.698085
 C        -0.732765         0.632542         0.829309
 C        -1.264108         0.637767         2.289308
 C        -2.520721         0.025217         1.693036
 C        -3.310385         0.716730         0.540216
 C        -2.737708         1.989905         0.200674
 C        -1.205970         1.842817        -0.035888
 O        -2.913552        -0.156656        -0.476362
 C        -1.768583        -0.548763         0.427378
 H         1.058576         1.216012         0.421551
 H        -0.537236         0.010782         2.760792
 H        -1.279694         1.509210         2.975466
 H        -3.164341        -0.796438         2.157831
 H        -4.469165         0.848740         0.690036
 H        -3.146143         2.423062        -0.665129
 H        -2.972911         2.896916         0.803986
 H        -0.978785         1.627576        -1.062979
 H        -0.867146         2.818311         0.311669
 H        -1.463899        -1.589762         0.172293
