19
Iteration:  3631
 O         0.622859         0.230910         0.561327
 C        -0.736046         0.678595         0.757235
 C        -1.360313         0.699913         2.300224
 C        -2.552200        -0.116975         1.714058
 C        -3.301137         0.679527         0.576645
 C        -2.676835         2.133890         0.237705
 C        -1.191459         1.946309        -0.035646
 O        -2.843556        -0.227771        -0.439127
 C        -1.790081        -0.548520         0.482187
 H         1.220100         0.835376         1.062882
 H        -0.679781         0.293350         3.090431
 H        -1.644745         1.718002         2.539581
 H        -3.250904        -0.816145         2.110526
 H        -4.418011         0.457185         0.641416
 H        -3.141333         2.446703        -0.719338
 H        -2.870122         2.706993         1.176866
 H        -1.035104         1.558468        -1.104854
 H        -0.551085         2.835095         0.135364
 H        -1.178706        -1.445540         0.159356
