19
Iteration:  4415
 O         0.669799         0.295425         0.687001
 C        -0.712372         0.610102         0.749004
 C        -1.264394         0.657955         2.133644
 C        -2.599502         0.028051         1.644811
 C        -3.303070         0.721910         0.500002
 C        -2.768630         2.086280         0.292159
 C        -1.181679         1.889546         0.024970
 O        -2.838874        -0.279951        -0.473201
 C        -1.841283        -0.564410         0.547889
 H         1.083334         1.047016         0.158984
 H        -0.706362        -0.203477         2.684679
 H        -1.250702         1.586477         2.801739
 H        -3.236756        -0.519795         2.364856
 H        -4.427486         0.641063         0.574324
 H        -3.215967         2.575052        -0.580320
 H        -2.912051         2.602699         1.300155
 H        -0.872839         1.992921        -1.080936
 H        -0.685242         2.750361         0.616275
 H        -1.395958        -1.562614         0.465857
