19
Iteration:  4802charge 0 multiplicity 1
 O         0.638326         0.382132         0.807471
 C        -0.734642         0.558432         0.783407
 C        -1.319272         0.586783         2.161547
 C        -2.540076        -0.124580         1.687123
 C        -3.325587         0.690985         0.583489
 C        -2.670242         2.126159         0.215646
 C        -1.141595         1.954720        -0.060819
 O        -2.889354        -0.174012        -0.463606
 C        -1.828144        -0.613085         0.407280
 H         1.024405         0.657826        -0.048533
 H        -0.707142        -0.050190         2.740137
 H        -1.279784         1.558431         2.658402
 H        -3.230399        -0.635542         2.350710
 H        -4.405312         0.835553         0.626618
 H        -3.149529         2.585721        -0.658926
 H        -2.798161         2.752378         1.096544
 H        -0.814669         2.157849        -1.058847
 H        -0.700211         2.694014         0.522450
 H        -1.585502        -1.725017         0.380541
