19
Iteration:  4899
 O         0.807501         0.307106         0.785274
 C        -0.708124         0.646062         0.771178
 C        -1.317175         0.599187         2.188354
 C        -2.588497        -0.037174         1.732512
 C        -3.359222         0.728358         0.483747
 C        -2.733460         2.077946         0.303594
 C        -1.261845         1.914927        -0.027507
 O        -2.835541        -0.193403        -0.507466
 C        -1.864301        -0.549338         0.453296
 H         0.928811         0.292024        -0.262741
 H        -0.759198        -0.114014         2.821745
 H        -1.349154         1.578339         2.784026
 H        -3.129576        -0.766465         2.358158
 H        -4.475443         0.772832         0.482090
 H        -3.226460         2.455683        -0.626226
 H        -2.824870         2.812356         1.154245
 H        -1.100154         1.613430        -1.037161
 H        -0.655765         2.817167         0.122570
 H        -1.340180        -1.521446         0.341620
