19
Iteration:  2202
 O         0.607193         0.237904         0.686670
 C        -0.776023         0.656284         0.774492
 C        -1.230891         0.651151         2.131944
 C        -2.527168        -0.075191         1.762268
 C        -3.331551         0.703410         0.514178
 C        -2.754880         2.134572         0.175335
 C        -1.186113         1.990797         0.039430
 O        -2.891409        -0.311577        -0.369632
 C        -1.747708        -0.523397         0.447689
 H         1.139368         0.992360         0.260265
 H        -0.491176        -0.047484         2.530533
 H        -1.275992         1.586915         2.649851
 H        -3.052644        -0.784483         2.326148
 H        -4.430586         0.715763         0.564289
 H        -3.233905         2.496840        -0.867398
 H        -3.048220         2.688986         1.137938
 H        -0.823940         1.909669        -1.055674
 H        -0.713844         2.989585         0.317729
 H        -1.250805        -1.512568         0.364964
