19
Iteration:  3298
 O         0.504530         0.156634         0.515593
 C        -0.733779         0.652085         0.815090
 C        -1.371050         0.666590         2.286411
 C        -2.525439        -0.087165         1.684434
 C        -3.364523         0.705273         0.528599
 C        -2.757178         2.101632         0.230727
 C        -1.157651         1.990212         0.101111
 O        -2.771551        -0.192006        -0.514432
 C        -1.649334        -0.535450         0.527569
 H         1.237103         0.719870         0.364309
 H        -0.830315         0.184121         3.041553
 H        -1.379821         1.656789         2.760416
 H        -3.154298        -0.737370         2.405900
 H        -4.436267         0.670951         0.639797
 H        -3.256320         2.251641        -0.755262
 H        -2.977294         2.829898         1.007557
 H        -1.078432         1.907298        -1.021528
 H        -0.513426         2.880397         0.407538
 H        -1.010577        -1.406374         0.476715
