19
Iteration:  4915charge 0 multiplicity 1
 O         0.663483         0.316129         0.824894
 C        -0.671554         0.691647         0.761224
 C        -1.295556         0.604036         2.229660
 C        -2.605376        -0.121288         1.588836
 C        -3.409398         0.752939         0.699541
 C        -2.769735         2.092098         0.188313
 C        -1.142239         1.850715        -0.077861
 O        -2.869697        -0.157666        -0.478360
 C        -1.724463        -0.531445         0.421955
 H         1.207389         0.439125        -0.049230
 H        -0.709536        -0.196697         2.710957
 H        -1.272618         1.396315         2.942379
 H        -3.205294        -0.678848         2.317966
 H        -4.499450         0.617978         0.828860
 H        -3.237502         2.487998        -0.721500
 H        -2.955621         2.778108         1.004075
 H        -1.009042         1.702747        -1.196898
 H        -0.568573         2.782235         0.103390
 H        -1.407170        -1.607786         0.221660
