19
Iteration:  2872
 O         0.606967         0.203910         0.595680
 C        -0.729883         0.623776         0.752338
 C        -1.253426         0.639150         2.157747
 C        -2.543943        -0.011131         1.683603
 C        -3.304296         0.750807         0.549081
 C        -2.792370         2.050296         0.187607
 C        -1.211178         1.965894         0.128432
 O        -2.795306        -0.195106        -0.420171
 C        -1.813733        -0.592960         0.496558
 H         1.359227         0.948895         0.546122
 H        -0.693746         0.309056         3.003213
 H        -1.422496         1.541017         2.702153
 H        -3.015175        -0.746714         2.303363
 H        -4.381413         0.486307         0.620278
 H        -3.126559         2.394415        -0.836940
 H        -3.135354         2.790610         0.862045
 H        -0.968475         1.964571        -0.935062
 H        -0.927079         2.885577         0.649276
 H        -1.266558        -1.515232         0.249630
