19
Iteration:  1462
 O         0.682793         0.403068         0.511302
 C        -0.699920         0.569098         0.863919
 C        -1.243162         0.581318         2.282892
 C        -2.581537         0.022449         1.714465
 C        -3.363409         0.752980         0.446105
 C        -2.769051         2.100572         0.153227
 C        -1.216293         1.853465         0.109618
 O        -2.797113        -0.187897        -0.466324
 C        -1.858874        -0.570005         0.539657
 H         1.005205        -0.478945         0.625136
 H        -0.940250        -0.254359         2.963849
 H        -1.146834         1.656224         2.800372
 H        -3.121579        -0.782902         2.312860
 H        -4.460023         0.625956         0.407527
 H        -3.093115         2.495823        -0.788536
 H        -3.086102         2.834470         0.937611
 H        -0.722654         1.902320        -0.885535
 H        -0.740585         2.761982         0.636400
 H        -1.452605        -1.596067         0.385110
