19
Iteration:   970charge 0 multiplicity 1
 O         0.583988         0.194500         0.652040
 C        -0.797818         0.660031         0.745606
 C        -1.266060         0.654627         2.200647
 C        -2.482999        -0.012794         1.670231
 C        -3.362052         0.736500         0.522565
 C        -2.775156         2.083964         0.195216
 C        -1.194337         1.993937         0.076535
 O        -2.826954        -0.321028        -0.422749
 C        -1.719054        -0.526161         0.511815
 H         1.158611         0.893261         0.333359
 H        -0.607599        -0.107658         2.698860
 H        -1.253494         1.650747         2.721289
 H        -3.199178        -0.667907         2.432351
 H        -4.505906         0.641756         0.592517
 H        -3.147348         2.390334        -0.854737
 H        -3.090965         2.876058         0.827284
 H        -0.835839         2.127720        -1.011338
 H        -0.729994         2.877819         0.565106
 H        -1.110733        -1.432951         0.395956
