19
Iteration:   792charge 0 multiplicity 1
 O         0.703033         0.423597         0.777062
 C        -0.695265         0.627897         0.740753
 C        -1.309087         0.704473         2.170246
 C        -2.530270        -0.023278         1.654583
 C        -3.378387         0.716822         0.561706
 C        -2.676069         2.075955         0.343859
 C        -1.189662         1.725169        -0.156336
 O        -2.866103        -0.199264        -0.464704
 C        -1.878522        -0.674635         0.475639
 H         1.204539         1.227977         0.428572
 H        -0.811107         0.056914         2.875272
 H        -1.406236         1.733000         2.541990
 H        -3.201275        -0.587312         2.456171
 H        -4.426538         0.748097         0.650184
 H        -3.103057         2.676210        -0.531482
 H        -2.669257         2.636204         1.280387
 H        -1.212049         1.451236        -1.193915
 H        -0.731077         2.612415         0.036787
 H        -1.522191        -1.659190         0.412992
