19
Iteration:  2762charge 0 multiplicity 1
 O         0.599782         0.217518         0.609628
 C        -0.731481         0.674478         0.785866
 C        -1.270309         0.625401         2.239724
 C        -2.516922        -0.016975         1.665415
 C        -3.353282         0.759599         0.634285
 C        -2.758418         2.054678         0.186441
 C        -1.191232         1.950161         0.018718
 O        -2.813923        -0.288800        -0.445351
 C        -1.767278        -0.488610         0.446474
 H         1.296055         0.894097         0.752086
 H        -0.634281        -0.143928         2.761448
 H        -1.533370         1.557272         2.790221
 H        -3.041536        -0.819550         2.148801
 H        -4.485464         0.692786         0.631290
 H        -3.318360         2.453214        -0.713134
 H        -3.118597         2.802927         0.905220
 H        -1.021628         1.811238        -1.075079
 H        -0.763108         2.960315         0.553294
 H        -1.261643        -1.462265         0.331325
