19
Iteration:  3526charge 0 multiplicity 1
 O         0.641054         0.210916         0.712133
 C        -0.720882         0.581838         0.709750
 C        -1.313757         0.719771         2.177422
 C        -2.513420        -0.001876         1.600455
 C        -3.324018         0.734580         0.544498
 C        -2.749659         2.106467         0.379912
 C        -1.285670         1.881476        -0.038300
 O        -2.808749        -0.223956        -0.477085
 C        -1.710940        -0.573418         0.480504
 H         1.068718         1.147474         0.425877
 H        -0.804362         0.083384         2.886489
 H        -1.377837         1.760775         2.659737
 H        -3.251203        -0.550175         2.299211
 H        -4.393679         0.661710         0.691475
 H        -3.442293         2.688861        -0.282344
 H        -2.971308         2.610622         1.339233
 H        -1.117366         1.688297        -1.112387
 H        -0.510069         2.656376         0.088337
 H        -1.469163        -1.616222         0.428373
