19
Iteration:  3354charge 0 multiplicity 1
 O         0.712201         0.364263         0.666118
 C        -0.717789         0.547455         0.770762
 C        -1.293552         0.631343         2.269912
 C        -2.550509        -0.011154         1.685941
 C        -3.344437         0.771567         0.537804
 C        -2.724972         2.091530         0.263658
 C        -1.246251         1.826462        -0.021449
 O        -2.816383        -0.222206        -0.505241
 C        -1.862469        -0.597334         0.426434
 H         1.378063         1.077954         1.047020
 H        -0.726261        -0.179817         2.648244
 H        -1.264493         1.554100         2.782163
 H        -3.235428        -0.477281         2.405049
 H        -4.427088         0.787177         0.640866
 H        -3.379699         2.636491        -0.472364
 H        -2.798519         2.734034         1.126089
 H        -1.378567         1.737020        -1.106402
 H        -0.523986         2.622975         0.297082
 H        -1.471342        -1.571688         0.294352
