19
Iteration:  1147charge 0 multiplicity 1
 O         0.614347         0.331192         0.410011
 C        -0.775700         0.573846         0.806938
 C        -1.234774         0.636214         2.278455
 C        -2.594603         0.096734         1.674965
 C        -3.336898         0.764595         0.429232
 C        -2.760268         2.089936         0.142183
 C        -1.218934         1.866074         0.197004
 O        -2.721724        -0.323407        -0.399028
 C        -1.806605        -0.597543         0.595421
 H         1.107550         1.048762         0.660975
 H        -0.643003         0.025097         2.902909
 H        -1.165107         1.563109         2.775458
 H        -3.326807        -0.414170         2.441518
 H        -4.446576         0.684061         0.420915
 H        -3.123744         2.415867        -0.889312
 H        -3.161347         2.779044         0.823386
 H        -0.766108         1.898897        -0.785485
 H        -0.793917         2.721187         0.778290
 H        -1.602908        -1.695104         0.635167
