19
Iteration:  4489charge 0 multiplicity 1
 O         0.640743         0.207315         0.759059
 C        -0.732454         0.687696         0.731505
 C        -1.267891         0.696617         2.199624
 C        -2.546445        -0.047768         1.660593
 C        -3.382063         0.696238         0.549543
 C        -2.790173         2.074788         0.286431
 C        -1.265304         1.896000         0.040928
 O        -2.783870        -0.160870        -0.545353
 C        -1.715385        -0.513316         0.473896
 H         0.935800        -0.120938        -0.033127
 H        -0.610182         0.132464         2.839724
 H        -1.212692         1.605736         2.745624
 H        -3.011372        -0.697160         2.399326
 H        -4.482918         0.731267         0.526774
 H        -3.247869         2.580469        -0.597324
 H        -2.890083         2.616150         1.262283
 H        -1.120227         1.563641        -0.965678
 H        -0.646337         2.814235         0.070298
 H        -1.403057        -1.532520         0.462928
