19
Iteration:  2426
 O         0.671352         0.277176         0.706896
 C        -0.731372         0.732757         0.757123
 C        -1.203806         0.654768         2.161156
 C        -2.486787        -0.132334         1.708765
 C        -3.385813         0.748672         0.620920
 C        -2.760577         2.044151         0.146520
 C        -1.155542         2.002222         0.059587
 O        -2.906372        -0.286306        -0.454609
 C        -1.802551        -0.529413         0.453658
 H         0.854500         0.225616        -0.304394
 H        -0.614757         0.127765         2.960327
 H        -1.382296         1.579214         2.691969
 H        -3.159824        -0.762571         2.388701
 H        -4.449714         0.620410         0.595284
 H        -3.292097         2.366787        -0.777921
 H        -2.994313         2.881685         0.915654
 H        -0.959499         1.732132        -0.948623
 H        -0.907546         2.992790         0.503969
 H        -1.389389        -1.552567         0.488028
