19
Iteration:  4631charge 0 multiplicity 1
 O         0.690866         0.281498         0.667501
 C        -0.741017         0.634875         0.854966
 C        -1.423394         0.668630         2.245426
 C        -2.566292        -0.079596         1.642609
 C        -3.341770         0.697463         0.546486
 C        -2.670440         2.143679         0.326275
 C        -1.224798         1.842865        -0.066762
 O        -2.801746        -0.198666        -0.512784
 C        -1.726717        -0.501774         0.456019
 H         0.973129         0.238430        -0.287882
 H        -1.035789        -0.007137         3.088685
 H        -1.526113         1.696953         2.740698
 H        -3.199545        -0.645358         2.390722
 H        -4.449058         0.608762         0.653302
 H        -3.285004         2.718211        -0.425061
 H        -2.693601         2.643993         1.339167
 H        -1.150013         1.638265        -1.098113
 H        -0.558091         2.733667         0.139184
 H        -1.339724        -1.507718         0.361725
