19
Iteration:   720
 O         0.625670         0.286659         0.558947
 C        -0.709482         0.570749         0.812379
 C        -1.233452         0.706349         2.222434
 C        -2.586549         0.144508         1.682652
 C        -3.365911         0.662490         0.442796
 C        -2.832914         2.115242         0.181744
 C        -1.268273         1.902696         0.126791
 O        -2.670274        -0.269850        -0.435676
 C        -1.768437        -0.562700         0.579282
 H         0.619934        -0.400398        -0.146164
 H        -0.819116        -0.131320         2.858184
 H        -1.254517         1.692711         2.710217
 H        -3.077879        -0.444583         2.371449
 H        -4.536572         0.616130         0.349002
 H        -3.219792         2.493467        -0.749046
 H        -2.958240         2.834725         0.980482
 H        -1.036556         1.859532        -0.982751
 H        -0.771559         2.716773         0.788057
 H        -1.420365        -1.658092         0.709070
