19
Iteration:  4841charge 0 multiplicity 1
 O         0.674101         0.225552         0.606057
 C        -0.728572         0.620579         0.810693
 C        -1.329887         0.613293         2.370981
 C        -2.575163        -0.040366         1.644174
 C        -3.353459         0.763765         0.474630
 C        -2.791093         2.089120         0.194101
 C        -1.189278         1.937650         0.047040
 O        -2.792913        -0.174360        -0.489732
 C        -1.721677        -0.544785         0.520211
 H         0.756077         0.503082        -0.291151
 H        -0.925868        -0.171824         3.109793
 H        -1.376753         1.624343         2.850383
 H        -3.101769        -0.733519         2.307415
 H        -4.440912         0.587116         0.546173
 H        -3.336612         2.582972        -0.610720
 H        -2.930499         2.723165         1.116896
 H        -0.909071         1.702164        -1.047782
 H        -0.649590         2.910080         0.468997
 H        -1.286040        -1.501889         0.384868
