19
Iteration:  2314charge 0 multiplicity 1
 O         0.639410         0.273305         0.581557
 C        -0.755789         0.624228         0.781306
 C        -1.339907         0.719599         2.214552
 C        -2.456953        -0.109785         1.693732
 C        -3.260739         0.698532         0.683946
 C        -2.771410         1.994101         0.099014
 C        -1.150611         1.970522         0.119753
 O        -2.889394        -0.196970        -0.418894
 C        -1.779192        -0.550133         0.458166
 H         0.840233         0.514717        -0.338187
 H        -0.791754         0.188366         2.959579
 H        -1.647712         1.742040         2.485613
 H        -3.108484        -0.718614         2.254474
 H        -4.327036         0.672625         0.787648
 H        -3.175047         2.220444        -0.960517
 H        -3.184282         2.905526         0.682607
 H        -0.548789         2.037111        -0.801358
 H        -0.999758         2.854614         0.846430
 H        -1.255940        -1.491647         0.318416
