19
Iteration:   939charge 0 multiplicity 1
 O         0.707073         0.362885         0.614293
 C        -0.784188         0.585149         0.786073
 C        -1.419857         0.723496         2.273276
 C        -2.543262        -0.054403         1.660893
 C        -3.322932         0.778938         0.553884
 C        -2.642869         2.038897         0.383835
 C        -1.226255         1.734589        -0.135264
 O        -2.793604        -0.193587        -0.463430
 C        -1.786624        -0.593637         0.472582
 H         0.969602         1.339219         0.611945
 H        -0.872510         0.308709         3.104217
 H        -1.571387         1.721663         2.620740
 H        -3.243756        -0.626490         2.352443
 H        -4.449416         0.603876         0.510097
 H        -3.272161         2.689923        -0.392102
 H        -2.665068         2.587755         1.414103
 H        -1.184766         1.408134        -1.183918
 H        -0.645151         2.615802        -0.138964
 H        -1.339618        -1.601872         0.181098
