19
Iteration:  2543charge 0 multiplicity 1
 O         0.659920         0.354580         0.792021
 C        -0.716879         0.634214         0.716766
 C        -1.260901         0.723105         2.141723
 C        -2.508571        -0.098419         1.693240
 C        -3.349199         0.704737         0.603722
 C        -2.742700         2.062307         0.272069
 C        -1.228041         1.903083        -0.050766
 O        -2.872842        -0.245522        -0.389683
 C        -1.819894        -0.597918         0.364269
 H         1.048240         0.061337        -0.069512
 H        -0.540467         0.199538         2.822647
 H        -1.240395         1.762168         2.637528
 H        -3.129280        -0.601980         2.358750
 H        -4.468061         0.790585         0.546496
 H        -3.259759         2.633780        -0.588598
 H        -2.745008         2.816424         1.098568
 H        -1.135864         1.686914        -1.150378
 H        -0.669261         2.834362         0.281710
 H        -1.317379        -1.587257         0.180439
