19
Iteration:  3534
 O         0.618552         0.254234         0.633166
 C        -0.787688         0.619161         0.741312
 C        -1.348264         0.707895         2.231422
 C        -2.538962        -0.002071         1.685174
 C        -3.372376         0.683130         0.547318
 C        -2.683131         2.123435         0.374119
 C        -1.252050         1.867941        -0.059696
 O        -2.724536        -0.236907        -0.477773
 C        -1.778128        -0.579616         0.429348
 H         1.355944         0.969272         0.405053
 H        -0.889309         0.042999         2.952035
 H        -1.478218         1.663711         2.699928
 H        -3.167057        -0.544710         2.402839
 H        -4.451803         0.645828         0.787701
 H        -3.064833         2.624442        -0.465715
 H        -2.667780         2.683869         1.319156
 H        -1.098121         1.713597        -1.132293
 H        -0.677414         2.824715         0.184980
 H        -1.414421        -1.629525         0.405591
