19
Iteration:  1395
 O         0.682663         0.324536         0.727803
 C        -0.674797         0.601394         0.760585
 C        -1.328430         0.700715         2.188610
 C        -2.567189        -0.055926         1.674476
 C        -3.341267         0.705441         0.536501
 C        -2.664015         2.049687         0.339884
 C        -1.181959         1.869661        -0.019615
 O        -2.866273        -0.248739        -0.509641
 C        -1.856932        -0.549341         0.439999
 H         1.041806         1.111636         0.202978
 H        -0.931041        -0.084364         2.906763
 H        -1.442533         1.779900         2.706991
 H        -3.117604        -0.595106         2.443305
 H        -4.437075         0.818641         0.647821
 H        -3.215641         2.533577        -0.449881
 H        -2.730418         2.744484         1.174724
 H        -1.085405         1.723402        -1.150618
 H        -0.626033         2.797065         0.179457
 H        -1.516775        -1.592461         0.241652
