19
Iteration:  1051charge 0 multiplicity 1
 O         0.632423         0.271679         0.614692
 C        -0.760338         0.642398         0.775673
 C        -1.277781         0.706037         2.224450
 C        -2.582663         0.032470         1.708934
 C        -3.359809         0.693727         0.516406
 C        -2.734180         2.104834         0.303794
 C        -1.227134         1.869306        -0.041604
 O        -2.792145        -0.314224        -0.455300
 C        -1.758841        -0.545742         0.480818
 H         1.203894         1.070649         0.710215
 H        -0.638161         0.033126         2.851690
 H        -1.290642         1.625086         2.823500
 H        -3.128875        -0.654950         2.267329
 H        -4.456618         0.651002         0.287819
 H        -3.243462         2.675742        -0.515663
 H        -2.766531         2.818388         1.286124
 H        -1.176063         1.558581        -1.046599
 H        -0.620165         2.780518         0.079913
 H        -1.296594        -1.604440         0.519386
