19
Iteration:  4066
 O         0.647515         0.359129         0.717465
 C        -0.685479         0.551561         0.756853
 C        -1.302087         0.610428         2.169298
 C        -2.534140        -0.011570         1.720638
 C        -3.277963         0.754249         0.565996
 C        -2.723860         2.088273         0.235869
 C        -1.154469         1.911717         0.013984
 O        -2.895467        -0.275815        -0.486995
 C        -1.876280        -0.599517         0.467448
 H         1.049359         1.121918         0.245245
 H        -0.561751         0.054944         2.797844
 H        -1.342354         1.530994         2.671200
 H        -3.103419        -0.746110         2.237898
 H        -4.378575         0.848072         0.602371
 H        -3.260266         2.705028        -0.569816
 H        -2.944679         2.839793         0.995718
 H        -1.048552         1.816796        -1.139233
 H        -0.546387         2.837772         0.357954
 H        -1.621423        -1.695267         0.393713
