19
Iteration:  4610charge 0 multiplicity 1
 O         0.596531         0.304523         0.683734
 C        -0.758273         0.633303         0.735809
 C        -1.364845         0.748622         2.206992
 C        -2.561769        -0.100710         1.677807
 C        -3.284328         0.759935         0.495484
 C        -2.669032         2.140169         0.375359
 C        -1.147856         1.911009         0.084271
 O        -2.817141        -0.283750        -0.484892
 C        -1.787515        -0.647163         0.426747
 H         0.906144         0.183193        -0.332692
 H        -0.606948         0.419618         3.018627
 H        -1.646842         1.804607         2.556873
 H        -3.232312        -0.909038         2.146749
 H        -4.393476         0.774337         0.327526
 H        -3.203319         2.559499        -0.533535
 H        -2.917605         2.763917         1.328266
 H        -0.953995         1.823225        -0.971330
 H        -0.574849         2.846227         0.399086
 H        -1.338407        -1.627437         0.292829
