19
Iteration:  3365charge 0 multiplicity 1
 O         0.704104         0.318953         0.679557
 C        -0.722912         0.671020         0.753077
 C        -1.295683         0.583612         2.262642
 C        -2.547687        -0.061179         1.676210
 C        -3.330723         0.783134         0.577151
 C        -2.714305         2.102376         0.280971
 C        -1.277872         1.810024        -0.099352
 O        -2.881614        -0.164865        -0.515005
 C        -1.759373        -0.633448         0.495641
 H         1.053669         1.176410         1.166321
 H        -0.726497        -0.059507         2.916045
 H        -1.381642         1.493553         2.806260
 H        -3.168494        -0.736063         2.279139
 H        -4.415534         0.857867         0.564872
 H        -3.108705         2.638516        -0.624855
 H        -2.791990         2.711993         1.166800
 H        -0.966610         1.507981        -1.108538
 H        -0.795427         2.808888         0.023480
 H        -1.451536        -1.618041         0.256007
