19
Iteration:  4972charge 0 multiplicity 1
 O         0.711740         0.329304         0.621648
 C        -0.672678         0.560406         0.738190
 C        -1.335488         0.655888         2.234395
 C        -2.690770        -0.022863         1.664250
 C        -3.356570         0.772449         0.431896
 C        -2.704082         2.071800         0.299603
 C        -1.265994         1.860135         0.116351
 O        -2.793015        -0.243349        -0.479665
 C        -1.733238        -0.506082         0.517187
 H         0.933841         0.356347        -0.355556
 H        -0.998370        -0.172852         2.884005
 H        -1.259492         1.600809         2.722557
 H        -3.233105        -0.562756         2.422370
 H        -4.443823         0.838872         0.423875
 H        -3.068681         2.748853        -0.444761
 H        -2.903717         2.451775         1.305074
 H        -1.077356         1.805832        -1.005845
 H        -0.596614         2.654657         0.657570
 H        -1.319115        -1.481348         0.532780
