19
Iteration:  4896
 O         0.783238         0.320042         0.770845
 C        -0.713187         0.622515         0.740407
 C        -1.310799         0.617647         2.226052
 C        -2.595786        -0.037052         1.718539
 C        -3.334629         0.737698         0.449558
 C        -2.730156         2.082304         0.319534
 C        -1.280668         1.892098        -0.002396
 O        -2.830176        -0.205999        -0.495225
 C        -1.850991        -0.540985         0.438952
 H         0.874448         0.286664        -0.221877
 H        -0.695195        -0.021712         2.922106
 H        -1.316766         1.568907         2.781620
 H        -3.176097        -0.674412         2.343408
 H        -4.415672         0.646893         0.484689
 H        -3.142352         2.488960        -0.591271
 H        -2.816295         2.737226         1.198580
 H        -1.052983         1.668530        -1.094471
 H        -0.580030         2.820349         0.156686
 H        -1.506588        -1.518427         0.366704
