19
Iteration:   931
 O         0.698360         0.403650         0.603670
 C        -0.731486         0.567005         0.782570
 C        -1.404509         0.712583         2.268372
 C        -2.618478        -0.068976         1.677525
 C        -3.346277         0.727016         0.580996
 C        -2.632974         2.115500         0.359333
 C        -1.263907         1.675249        -0.149260
 O        -2.788783        -0.150427        -0.466712
 C        -1.727108        -0.614770         0.471417
 H         0.968485         1.321812         0.673153
 H        -0.849780         0.189098         3.041736
 H        -1.841416         1.649541         2.603243
 H        -3.172820        -0.620077         2.271274
 H        -4.434399         0.816645         0.508805
 H        -3.148526         2.747763        -0.345675
 H        -2.485736         2.732134         1.332417
 H        -1.369786         1.167666        -1.050198
 H        -0.582937         2.563560        -0.061415
 H        -1.310421        -1.668870         0.378602
