19
Iteration:  4078charge 0 multiplicity 1
 O         0.762894         0.377772         0.747064
 C        -0.792468         0.591051         0.722575
 C        -1.205424         0.567707         2.231120
 C        -2.581109        -0.040432         1.669807
 C        -3.404923         0.767638         0.599174
 C        -2.715919         2.119000         0.187323
 C        -1.200519         1.877950        -0.056864
 O        -2.883329        -0.220856        -0.439517
 C        -1.849748        -0.597894         0.441687
 H         1.128004         1.135907         0.360727
 H        -0.770489        -0.283842         2.784640
 H        -1.268032         1.483276         2.769902
 H        -3.231001        -0.517142         2.395077
 H        -4.487523         0.685233         0.634726
 H        -3.282755         2.486351        -0.741351
 H        -2.746126         2.682299         1.101570
 H        -0.806858         1.656765        -1.105858
 H        -0.536909         2.718615         0.419113
 H        -1.446920        -1.662062         0.362692
