19
Iteration:  2918charge 0 multiplicity 1
 O         0.642471         0.347862         0.532189
 C        -0.792124         0.620742         0.778966
 C        -1.350100         0.579111         2.246696
 C        -2.567035        -0.053307         1.744687
 C        -3.307520         0.724787         0.529313
 C        -2.676333         2.179958         0.265960
 C        -1.220380         1.852477        -0.010126
 O        -2.805379        -0.291623        -0.518757
 C        -1.747427        -0.539751         0.573975
 H         1.211497         1.199934         0.547710
 H        -0.832580        -0.069403         2.958057
 H        -1.380207         1.415413         2.918312
 H        -3.213953        -0.480377         2.411946
 H        -4.412097         0.828716         0.473535
 H        -3.139620         2.787546        -0.559753
 H        -2.882460         2.693280         1.198411
 H        -1.069015         1.475748        -1.046181
 H        -0.600677         2.776889         0.179301
 H        -1.518108        -1.585593         0.580787
