19
Iteration:  1929charge 0 multiplicity 1
 O         0.702811         0.489486         0.679418
 C        -0.745632         0.542781         0.753063
 C        -1.297700         0.650839         2.228228
 C        -2.628346        -0.005134         1.622107
 C        -3.356943         0.732568         0.525705
 C        -2.642749         2.095272         0.324947
 C        -1.210580         1.763302         0.027570
 O        -2.857361        -0.254264        -0.457042
 C        -1.814970        -0.622143         0.459393
 H         1.004766         0.962239        -0.155308
 H        -0.703417        -0.036435         2.973957
 H        -1.163560         1.691298         2.836254
 H        -3.188286        -0.669943         2.272458
 H        -4.445698         0.805342         0.479868
 H        -3.040789         2.734717        -0.572923
 H        -2.793129         2.743799         1.198283
 H        -1.209418         1.548231        -1.060654
 H        -0.461095         2.586832         0.157019
 H        -1.540318        -1.703941         0.462217
