19
Iteration:  3664
 O         0.576546         0.311711         0.617387
 C        -0.768969         0.587003         0.741287
 C        -1.283525         0.713726         2.222481
 C        -2.606346        -0.026473         1.712134
 C        -3.312532         0.663919         0.550479
 C        -2.683200         2.107007         0.320912
 C        -1.247325         1.775287        -0.039533
 O        -2.725591        -0.172543        -0.490072
 C        -1.775894        -0.543788         0.503264
 H         1.082606         1.065306         0.688834
 H        -0.704642         0.020304         2.875530
 H        -1.400751         1.650486         2.758877
 H        -3.392793        -0.558509         2.202018
 H        -4.445757         0.505550         0.595183
 H        -3.290589         2.748669        -0.317586
 H        -2.649610         2.803457         1.217075
 H        -1.225654         1.369769        -1.086859
 H        -0.592987         2.687554         0.030349
 H        -1.236052        -1.526105         0.302422
