19
Iteration:  3969charge 0 multiplicity 1
 O         0.735241         0.427080         0.709175
 C        -0.692419         0.680397         0.800998
 C        -1.361008         0.642913         2.200476
 C        -2.618227        -0.062718         1.698474
 C        -3.329953         0.778922         0.612625
 C        -2.675287         2.067801         0.277778
 C        -1.096042         1.872546        -0.025454
 O        -2.923371        -0.303317        -0.446996
 C        -1.850409        -0.609290         0.354790
 H         0.913199         0.214567        -0.159504
 H        -0.877401        -0.037217         2.973528
 H        -1.201796         1.583086         2.744701
 H        -3.158879        -0.727001         2.354067
 H        -4.393967         0.869816         0.640289
 H        -3.016340         2.502637        -0.742717
 H        -3.076709         2.780565         1.020097
 H        -0.966306         1.597674        -1.100198
 H        -0.545512         2.786522         0.401839
 H        -1.560892        -1.678447         0.081363
