19
Iteration:  1088
 O         0.607127         0.211137         0.712371
 C        -0.789735         0.672520         0.751322
 C        -1.372706         0.799114         2.268601
 C        -2.450462        -0.168879         1.726276
 C        -3.315092         0.664173         0.637122
 C        -2.694753         2.101374         0.292038
 C        -1.235218         1.860351        -0.172990
 O        -2.806131        -0.152935        -0.465356
 C        -1.764391        -0.573057         0.379326
 H         1.004370         1.110402         1.083782
 H        -0.523761         0.342140         2.802101
 H        -1.740586         1.845254         2.313792
 H        -2.968395        -0.835584         2.500720
 H        -4.373279         0.601614         0.719092
 H        -3.339648         2.349405        -0.545300
 H        -2.689989         3.064596         1.117015
 H        -1.121012         1.401588        -1.238728
 H        -0.599465         2.749482        -0.044716
 H        -1.371987        -1.517579         0.199141
