19
Iteration:  1727
 O         0.565483         0.264701         0.438458
 C        -0.753718         0.661127         0.806036
 C        -1.302046         0.587491         2.295382
 C        -2.563957        -0.088077         1.710176
 C        -3.289116         0.720168         0.556487
 C        -2.732760         2.073435         0.087930
 C        -1.154747         1.996918         0.163871
 O        -2.790580        -0.233741        -0.435264
 C        -1.802845        -0.540904         0.521021
 H         1.288296         0.790558         0.817395
 H        -0.813471        -0.185275         2.897961
 H        -1.478163         1.626607         2.906749
 H        -3.322020        -0.704045         2.151081
 H        -4.368453         0.652307         0.640581
 H        -2.978866         2.395056        -0.890898
 H        -3.140883         2.903244         0.685515
 H        -0.665766         2.130902        -0.763345
 H        -0.720245         2.802576         0.747544
 H        -1.386105        -1.518343         0.495814
