19
Iteration:  1056charge 0 multiplicity 1
 O         0.640466         0.243513         0.641099
 C        -0.775987         0.649498         0.800157
 C        -1.308520         0.705419         2.178207
 C        -2.562350         0.020960         1.680725
 C        -3.367108         0.676884         0.522972
 C        -2.719809         2.099893         0.338413
 C        -1.262449         1.846258        -0.059844
 O        -2.804672        -0.273671        -0.462093
 C        -1.708768        -0.523119         0.489563
 H         1.124364         1.061705         0.759996
 H        -0.628195         0.176748         2.848346
 H        -1.204490         1.689518         2.703332
 H        -3.161403        -0.714250         2.342446
 H        -4.442850         0.684019         0.422198
 H        -3.246873         2.617327        -0.447212
 H        -2.694232         2.728985         1.210942
 H        -1.147452         1.529088        -1.161183
 H        -0.650065         2.766542        -0.035530
 H        -1.240262        -1.458044         0.526851
