19
Iteration:  1423charge 0 multiplicity 1
 O         0.537586         0.231537         0.624963
 C        -0.767696         0.617762         0.792058
 C        -1.330098         0.728105         2.231842
 C        -2.539751        -0.114698         1.645020
 C        -3.270098         0.707632         0.511454
 C        -2.725626         2.113504         0.194191
 C        -1.166821         1.982446         0.125957
 O        -2.782292        -0.271396        -0.425077
 C        -1.705871        -0.496333         0.491557
 H         0.466940         0.105497        -0.320579
 H        -0.813894         0.039785         2.874722
 H        -1.431537         1.643708         2.670755
 H        -3.146987        -0.761036         2.262108
 H        -4.357508         0.776193         0.637672
 H        -3.326916         2.529916        -0.695727
 H        -3.022807         2.888992         0.932960
 H        -0.850295         1.987053        -0.902356
 H        -0.600654         2.799581         0.583490
 H        -1.301660        -1.520321         0.296596
