19
Iteration:   829charge 0 multiplicity 1
 O         0.495633         0.264145         0.466168
 C        -0.748193         0.680979         0.823929
 C        -1.321946         0.638994         2.328177
 C        -2.598266        -0.021818         1.734876
 C        -3.307515         0.738173         0.487717
 C        -2.722200         2.084059         0.190199
 C        -1.207036         1.888473         0.045773
 O        -2.700515        -0.289511        -0.442072
 C        -1.744734        -0.539726         0.572326
 H         1.190576         1.042707         0.551636
 H        -0.713596        -0.008233         2.988984
 H        -1.345397         1.621815         2.769120
 H        -3.226710        -0.613969         2.367857
 H        -4.463178         0.635119         0.462326
 H        -3.022366         2.548541        -0.878516
 H        -3.065232         2.916602         0.871256
 H        -0.988853         1.715456        -1.063155
 H        -0.485952         2.744620         0.256027
 H        -1.181695        -1.517754         0.529490
