19
Iteration:  3270
 O         0.647573         0.266722         0.617458
 C        -0.738047         0.569345         0.772385
 C        -1.299851         0.641738         2.202205
 C        -2.562473         0.001300         1.732957
 C        -3.349121         0.716264         0.539219
 C        -2.792091         2.097369         0.249933
 C        -1.184946         1.898240         0.061891
 O        -2.805150        -0.174996        -0.526440
 C        -1.783566        -0.594424         0.454012
 H         1.172200         0.982389         0.826210
 H        -0.742467         0.009602         2.969646
 H        -1.113828         1.630607         2.671361
 H        -3.171769        -0.476255         2.427102
 H        -4.438688         0.506073         0.669837
 H        -3.389591         2.461552        -0.581885
 H        -2.878773         2.757662         1.183506
 H        -0.959037         1.861836        -1.016648
 H        -0.546335         2.721612         0.343890
 H        -1.267583        -1.568862         0.330170
