19
Iteration:  4269
 O         0.512107         0.216590         0.563470
 C        -0.783259         0.597675         0.801625
 C        -1.302757         0.759521         2.249011
 C        -2.560345        -0.127402         1.739547
 C        -3.283988         0.705853         0.525900
 C        -2.731242         2.121898         0.265880
 C        -1.224845         1.913208         0.013611
 O        -2.713411        -0.211121        -0.496923
 C        -1.769623        -0.563560         0.503604
 H         1.059866         1.118645         0.489260
 H        -0.699893         0.070241         2.854962
 H        -1.417130         1.729720         2.760273
 H        -3.187684        -0.785018         2.367850
 H        -4.350904         0.730448         0.772947
 H        -3.097910         2.574457        -0.654952
 H        -2.752790         2.768164         1.167638
 H        -1.100288         1.676169        -1.051411
 H        -0.578650         2.854812         0.244063
 H        -1.160297        -1.404084         0.229366
