19
Iteration:  2084
 O         0.633409         0.323359         0.757752
 C        -0.705474         0.643660         0.730675
 C        -1.338423         0.731237         2.203967
 C        -2.491815        -0.105763         1.702811
 C        -3.284515         0.674189         0.637414
 C        -2.728433         2.040615         0.308519
 C        -1.155517         1.820203        -0.117680
 O        -2.950298        -0.164308        -0.476009
 C        -1.752450        -0.599025         0.417326
 H         1.153505         1.126257         0.325274
 H        -0.613173         0.382186         2.954717
 H        -1.727147         1.821633         2.394718
 H        -3.072227        -0.637194         2.411686
 H        -4.354967         0.666122         0.809370
 H        -3.159919         2.355895        -0.674262
 H        -2.834929         2.853240         1.074704
 H        -1.144726         1.537219        -1.123638
 H        -0.607424         2.790361        -0.020389
 H        -1.466406        -1.592065         0.187517
