19
Iteration:  1508
 O         0.650660         0.329995         0.691657
 C        -0.734637         0.665816         0.716292
 C        -1.336589         0.648160         2.229529
 C        -2.511534        -0.146768         1.711700
 C        -3.420686         0.757149         0.548574
 C        -2.617102         2.078550         0.308291
 C        -1.193279         1.867556        -0.127483
 O        -2.860797        -0.184525        -0.469362
 C        -1.770572        -0.585046         0.423259
 H         1.044078         0.522617         1.625204
 H        -0.672882         0.133339         2.951063
 H        -1.731674         1.746592         2.749486
 H        -3.288832        -0.725634         2.317566
 H        -4.507724         0.732505         0.575834
 H        -3.191928         2.759391        -0.286164
 H        -2.529882         2.559787         1.326442
 H        -1.147418         1.631365        -1.196352
 H        -0.425213         2.764093        -0.012610
 H        -1.547896        -1.561703         0.101208
