19
Iteration:  1740charge 0 multiplicity 1
 O         0.508047         0.209640         0.476978
 C        -0.809973         0.649243         0.781224
 C        -1.370695         0.602198         2.252987
 C        -2.560885        -0.082796         1.712761
 C        -3.269230         0.723650         0.546200
 C        -2.644490         2.127085         0.116592
 C        -1.164693         2.033336         0.185991
 O        -2.853722        -0.269243        -0.448685
 C        -1.655456        -0.574034         0.505384
 H         1.042920         1.015987         0.679309
 H        -0.664580        -0.007316         2.922073
 H        -1.470248         1.704648         2.843763
 H        -3.016581        -0.703385         2.444350
 H        -4.347567         0.860058         0.604158
 H        -3.192298         2.139007        -0.892842
 H        -2.999759         2.908557         0.799048
 H        -0.652476         2.164281        -0.852281
 H        -0.841256         2.847688         0.960120
 H        -1.004670        -1.414919         0.256125
