19
Iteration:  1255
 O         0.640031         0.418409         0.568990
 C        -0.729162         0.596048         0.793074
 C        -1.343042         0.604370         2.369974
 C        -2.598995        -0.014702         1.673080
 C        -3.268354         0.770146         0.583362
 C        -2.647481         2.072143         0.215853
 C        -1.215545         1.758084        -0.012147
 O        -2.821474        -0.231760        -0.475869
 C        -1.825398        -0.565297         0.469850
 H         1.037046         1.237654         0.542935
 H        -0.954691        -0.278542         2.819412
 H        -1.553814         1.533062         2.899087
 H        -3.153625        -0.837499         2.251361
 H        -4.337624         0.857038         0.615662
 H        -3.176653         2.632151        -0.612326
 H        -2.732253         2.915574         1.091083
 H        -1.096359         1.365276        -1.047102
 H        -0.657370         2.710732         0.048738
 H        -1.310222        -1.456686         0.222378
