19
Iteration:  3553charge 0 multiplicity 1
 O         0.554447         0.287504         0.481818
 C        -0.772499         0.636828         0.842827
 C        -1.345067         0.690705         2.280344
 C        -2.623569        -0.138326         1.740220
 C        -3.286237         0.739233         0.494633
 C        -2.668968         2.069610         0.256042
 C        -1.161925         1.845193         0.012029
 O        -2.785726        -0.191063        -0.478799
 C        -1.731113        -0.505904         0.569207
 H         1.002229         1.256616         0.422668
 H        -0.662960         0.052962         2.930858
 H        -1.430233         1.614858         2.819482
 H        -3.293497        -0.741353         2.271014
 H        -4.442128         0.850587         0.477404
 H        -3.365848         2.449527        -0.557566
 H        -2.931429         2.601544         1.189472
 H        -0.799335         1.531453        -0.991071
 H        -0.417490         2.639087         0.042022
 H        -1.263745        -1.533360         0.438673
