19
Iteration:  3119
 O         0.644636         0.365888         0.590883
 C        -0.764430         0.605996         0.818047
 C        -1.265521         0.594494         2.286194
 C        -2.652136        -0.001562         1.691475
 C        -3.387864         0.707172         0.555040
 C        -2.684720         2.097141         0.237339
 C        -1.192424         1.757063        -0.028150
 O        -2.747576        -0.174811        -0.475306
 C        -1.781922        -0.559926         0.464881
 H         1.049239         1.206171         0.529711
 H        -0.993310        -0.279365         2.915934
 H        -1.347456         1.607122         2.771656
 H        -3.239195        -0.562076         2.441871
 H        -4.462853         0.693223         0.566365
 H        -3.113335         2.562933        -0.622638
 H        -2.771133         2.878286         1.036363
 H        -1.078603         1.688761        -1.134137
 H        -0.558488         2.672263         0.350523
 H        -1.462541        -1.615570         0.432037
