19
Iteration:  2626
 O         0.642572         0.240305         0.644507
 C        -0.686562         0.607125         0.724501
 C        -1.340392         0.761668         2.216377
 C        -2.478641        -0.009553         1.672096
 C        -3.348785         0.668541         0.552881
 C        -2.746982         2.044334         0.279740
 C        -1.210818         1.891829         0.046791
 O        -2.880486        -0.234786        -0.439382
 C        -1.741323        -0.522013         0.460723
 H         1.060526         0.864389         0.136503
 H        -0.799323         0.000995         2.761279
 H        -1.436909         1.725765         2.662500
 H        -3.163655        -0.603165         2.445357
 H        -4.443289         0.726180         0.460445
 H        -3.161689         2.357684        -0.679786
 H        -3.178222         2.663271         1.106362
 H        -1.036733         1.956437        -1.047735
 H        -0.448096         2.750279         0.457430
 H        -1.319226        -1.523024         0.418495
