19
Iteration:   966
 O         0.588467         0.203897         0.665039
 C        -0.808564         0.676197         0.742447
 C        -1.252424         0.664956         2.169761
 C        -2.518150        -0.014526         1.672592
 C        -3.384191         0.718281         0.538765
 C        -2.740284         2.093913         0.217466
 C        -1.197692         1.964381         0.060943
 O        -2.848064        -0.308073        -0.451670
 C        -1.688923        -0.549205         0.519907
 H         1.099504         1.003171         0.358392
 H        -0.550185         0.013422         2.751906
 H        -1.362074         1.613090         2.799841
 H        -3.095436        -0.587892         2.384316
 H        -4.425327         0.574815         0.484554
 H        -3.139439         2.398453        -0.678936
 H        -2.991263         2.853891         0.970534
 H        -0.822941         2.019395        -0.987714
 H        -0.684624         2.921813         0.412993
 H        -1.173019        -1.485508         0.466212
