19
Iteration:  4718
 O         0.586028         0.219281         0.657728
 C        -0.770244         0.636579         0.781604
 C        -1.324426         0.716420         2.271172
 C        -2.495647        -0.065867         1.637246
 C        -3.327349         0.735681         0.526328
 C        -2.720006         2.066817         0.224576
 C        -1.188755         1.931182         0.140812
 O        -2.811332        -0.231070        -0.489334
 C        -1.768353        -0.551432         0.425420
 H         0.934818         0.487651        -0.291195
 H        -0.749241         0.021885         2.939544
 H        -1.354422         1.741521         2.727408
 H        -3.249001        -0.621499         2.250602
 H        -4.433770         0.698252         0.616358
 H        -3.161922         2.538875        -0.676532
 H        -3.032506         2.768791         1.032499
 H        -0.716971         1.902017        -0.941596
 H        -0.686995         2.814448         0.643639
 H        -1.184908        -1.485488         0.359132
