19
Iteration:  4851charge 0 multiplicity 1
 O         0.627154         0.293412         0.544672
 C        -0.728090         0.602364         0.786558
 C        -1.377068         0.642221         2.326236
 C        -2.633031        -0.034998         1.726108
 C        -3.310716         0.685313         0.483601
 C        -2.724581         2.102478         0.262961
 C        -1.171937         1.941333         0.052131
 O        -2.721859        -0.182529        -0.478914
 C        -1.792877        -0.596792         0.535522
 H         0.947416         0.313782        -0.391726
 H        -0.779923         0.031743         3.076042
 H        -1.658033         1.565016         2.841303
 H        -3.398955        -0.737131         2.054529
 H        -4.382839         0.899977         0.432611
 H        -3.211735         2.575221        -0.582748
 H        -3.026743         2.636201         1.179349
 H        -0.848548         1.842132        -1.086544
 H        -0.418610         2.778860         0.420956
 H        -1.219815        -1.467700         0.367667
