19
Iteration:  3485
 O         0.603550         0.325233         0.613291
 C        -0.764684         0.601831         0.805083
 C        -1.356191         0.639158         2.240566
 C        -2.557516        -0.052972         1.663208
 C        -3.252116         0.730120         0.623718
 C        -2.737663         2.029385         0.229260
 C        -1.124959         1.866284        -0.041174
 O        -2.869922        -0.171677        -0.444160
 C        -1.742239        -0.553786         0.463233
 H         1.119302         1.053160         0.463666
 H        -0.810051        -0.074516         2.884979
 H        -1.500702         1.576716         2.851630
 H        -3.137998        -0.848751         2.160252
 H        -4.339342         0.873680         0.755723
 H        -3.253467         2.331349        -0.732817
 H        -2.832696         2.733169         1.067953
 H        -0.981661         1.808022        -1.149758
 H        -0.693357         2.809854         0.232925
 H        -1.261010        -1.526032         0.390793
