19
Iteration:  1319
 O         0.622918         0.165710         0.535690
 C        -0.746234         0.651660         0.752836
 C        -1.298192         0.748605         2.259435
 C        -2.539014        -0.002730         1.723344
 C        -3.351939         0.692544         0.485386
 C        -2.807180         2.104012         0.223400
 C        -1.173829         1.978167         0.182796
 O        -2.803221        -0.279086        -0.484118
 C        -1.763228        -0.565276         0.441175
 H         1.243230         0.701046         1.033256
 H        -0.720275         0.139626         3.012103
 H        -1.268130         1.909003         2.480619
 H        -3.066986        -0.817095         2.217891
 H        -4.445006         0.660329         0.515853
 H        -3.253021         2.458022        -0.646626
 H        -2.998350         2.646383         1.160662
 H        -0.860299         1.866911        -0.902595
 H        -0.614502         2.795990         0.654267
 H        -1.354962        -1.520884         0.259327
