19
Iteration:   703
 O         0.636420         0.360106         0.437984
 C        -0.753844         0.541321         0.824397
 C        -1.332823         0.788041         2.313002
 C        -2.612426         0.046340         1.727604
 C        -3.272914         0.731274         0.445281
 C        -2.736339         2.045888         0.198372
 C        -1.204916         1.897467         0.137035
 O        -2.694688        -0.288222        -0.505899
 C        -1.820304        -0.639003         0.649610
 H         0.591935        -0.112742        -0.481731
 H        -0.961432         0.199620         3.139130
 H        -1.395727         1.881400         2.561616
 H        -3.438739        -0.420899         2.410926
 H        -4.287010         0.632245         0.501387
 H        -3.131737         2.620516        -0.740968
 H        -3.073350         2.600609         1.129156
 H        -0.792591         1.851322        -0.839333
 H        -0.717757         2.640699         0.696059
 H        -1.426151        -1.662723         0.601074
