19
Iteration:  1895charge 0 multiplicity 1
 O         0.609870         0.267235         0.520090
 C        -0.833681         0.673669         0.793167
 C        -1.297291         0.652084         2.340523
 C        -2.625343        -0.055389         1.682389
 C        -3.322510         0.683078         0.549192
 C        -2.675689         2.111707         0.243200
 C        -1.191223         1.980730         0.103817
 O        -2.711492        -0.244436        -0.474782
 C        -1.777781        -0.544785         0.509493
 H         0.848365         0.468410        -0.493035
 H        -0.731903        -0.180752         2.962185
 H        -1.414366         1.736097         2.855301
 H        -3.252198        -0.801566         2.204134
 H        -4.418340         0.655655         0.447033
 H        -3.083946         2.188637        -0.855989
 H        -3.037388         2.890301         0.921307
 H        -1.061968         1.817596        -0.995542
 H        -0.563436         2.761348         0.506609
 H        -1.348935        -1.596179         0.504142
