19
Iteration:  3828charge 0 multiplicity 1
 O         0.655054         0.284166         0.697535
 C        -0.729564         0.635512         0.816239
 C        -1.274870         0.632579         2.298815
 C        -2.527294         0.013387         1.703853
 C        -3.331235         0.698846         0.559701
 C        -2.716344         1.992730         0.195762
 C        -1.202828         1.849342        -0.051604
 O        -2.897554        -0.150147        -0.476527
 C        -1.774827        -0.554121         0.409162
 H         1.027008         1.131755         0.407357
 H        -0.517135         0.019292         2.851032
 H        -1.259625         1.535669         2.971960
 H        -3.213213        -0.708843         2.106459
 H        -4.412866         0.895756         0.712873
 H        -3.139971         2.460891        -0.703541
 H        -2.959712         2.854360         0.894802
 H        -1.017232         1.591247        -1.084380
 H        -0.860254         2.796972         0.321251
 H        -1.459585        -1.628724         0.243321
