19
Iteration:  3025
 O         0.681193         0.306291         0.491813
 C        -0.704829         0.538541         0.804990
 C        -1.247644         0.593378         2.272680
 C        -2.577039         0.107556         1.705030
 C        -3.329802         0.715893         0.454976
 C        -2.811059         2.109606         0.165637
 C        -1.300757         1.829017         0.101558
 O        -2.755555        -0.189602        -0.452088
 C        -1.796844        -0.549677         0.601167
 H         1.339318         0.956680         0.978699
 H        -0.753900        -0.305105         2.658846
 H        -1.323937         1.560177         2.832480
 H        -3.403924        -0.451577         2.311377
 H        -4.470819         0.576755         0.586315
 H        -3.200879         2.477719        -0.856127
 H        -3.140676         2.847785         0.875800
 H        -0.846714         1.719439        -0.884396
 H        -0.706861         2.535941         0.604078
 H        -1.458694        -1.600425         0.416911
