19
Iteration:   583
 O         0.583999         0.305876         0.546298
 C        -0.748604         0.603061         0.780966
 C        -1.336602         0.673770         2.305748
 C        -2.605258         0.055729         1.679726
 C        -3.313935         0.729499         0.442654
 C        -2.697753         2.122603         0.201769
 C        -1.231799         1.926538         0.040644
 O        -2.682818        -0.339036        -0.434826
 C        -1.747451        -0.518623         0.628951
 H         0.507574        -0.184992        -0.237664
 H        -0.978960        -0.152635         2.842822
 H        -1.302196         1.594014         2.848305
 H        -3.241483        -0.626996         2.364543
 H        -4.365021         0.733226         0.399367
 H        -3.172312         2.526687        -0.738209
 H        -2.980872         2.690336         1.034299
 H        -1.016099         1.899745        -1.017688
 H        -0.755821         2.729463         0.557868
 H        -1.305269        -1.471163         0.636303
