19
Iteration:   562charge 0 multiplicity 1
 O         0.729495         0.211359         0.600415
 C        -0.708393         0.574183         0.818264
 C        -1.211802         0.722318         2.249886
 C        -2.607399         0.097909         1.750655
 C        -3.358445         0.667982         0.456007
 C        -2.926404         2.072517         0.117832
 C        -1.211699         1.958811         0.170836
 O        -2.698447        -0.207524        -0.495527
 C        -1.795172        -0.566907         0.554739
 H         0.515545        -0.303808        -0.302989
 H        -0.695507         0.060200         2.830192
 H        -1.276326         1.713973         2.574860
 H        -3.422832        -0.261389         2.496445
 H        -4.417769         0.486753         0.552845
 H        -3.210782         2.336198        -0.948691
 H        -3.248360         2.739084         0.779456
 H        -0.881396         1.932864        -0.904977
 H        -0.843783         2.770659         0.767257
 H        -1.547280        -1.540457         0.500076
