19
Iteration:  1015
 O         0.558964         0.371371         0.414835
 C        -0.741541         0.564075         0.786007
 C        -1.260189         0.644695         2.285551
 C        -2.646834         0.025163         1.738853
 C        -3.327454         0.750731         0.555772
 C        -2.689066         2.055345         0.047205
 C        -1.164368         1.878162         0.238248
 O        -2.775366        -0.297666        -0.385980
 C        -1.766424        -0.540910         0.532273
 H         0.989646         1.244702         0.275056
 H        -0.896989        -0.147447         2.971301
 H        -1.316226         1.614623         2.821760
 H        -3.234561        -0.807387         2.363709
 H        -4.466450         0.703292         0.416498
 H        -2.946569         2.093044        -1.071787
 H        -3.132620         2.919332         0.521459
 H        -0.674042         1.951879        -0.780359
 H        -0.645561         2.652607         0.799208
 H        -1.439773        -1.617570         0.451786
