19
Iteration:  2309charge 0 multiplicity 1
 O         0.640374         0.259779         0.602255
 C        -0.749846         0.634614         0.782682
 C        -1.334950         0.721541         2.184965
 C        -2.467678        -0.104512         1.682187
 C        -3.273300         0.667679         0.670286
 C        -2.788048         2.046870         0.112512
 C        -1.145218         1.982717         0.137379
 O        -2.898212        -0.230158        -0.420279
 C        -1.771114        -0.495183         0.441794
 H         0.835804         0.451340        -0.403242
 H        -0.773857         0.148711         2.975735
 H        -1.503852         1.726656         2.605507
 H        -2.986271        -0.871329         2.374763
 H        -4.396255         0.718340         0.767084
 H        -3.177975         2.084317        -0.864716
 H        -3.225871         2.901930         0.540605
 H        -0.611849         1.966984        -0.846361
 H        -0.816423         2.736479         0.809382
 H        -1.232027        -1.467729         0.430134
