19
Iteration:  1279
 O         0.552202         0.194920         0.520114
 C        -0.751979         0.644850         0.809375
 C        -1.249555         0.674240         2.282819
 C        -2.603897        -0.075123         1.691348
 C        -3.319579         0.685797         0.498479
 C        -2.797880         2.111335         0.204230
 C        -1.131610         1.922464         0.076185
 O        -2.741224        -0.205526        -0.452849
 C        -1.775981        -0.507278         0.561356
 H         1.126881         0.991909         0.395924
 H        -0.708869        -0.046193         2.835092
 H        -1.466909         1.570723         2.739476
 H        -3.321217        -0.759476         2.274269
 H        -4.408377         0.530123         0.532272
 H        -3.227073         2.569408        -0.781946
 H        -3.183945         2.875587         0.977541
 H        -0.850520         1.828819        -0.941040
 H        -0.636907         2.825448         0.512592
 H        -1.108483        -1.382596         0.331090
