19
Iteration:   198charge 0 multiplicity 1
 O         0.608551         0.406362         0.879983
 C        -0.734944         0.676875         0.756756
 C        -1.347677         0.676914         2.221686
 C        -2.509397        -0.151846         1.619832
 C        -3.274984         0.742933         0.652557
 C        -2.637006         2.130053         0.275399
 C        -1.265111         1.815007        -0.227860
 O        -2.865892        -0.188516        -0.427127
 C        -1.752655        -0.566935         0.379709
 H         0.763843        -0.309589         0.283051
 H        -0.542369         0.080040         2.743271
 H        -1.554135         1.662826         2.684295
 H        -3.060272        -0.913016         2.154145
 H        -4.379697         0.793808         0.744288
 H        -3.354500         2.503162        -0.443653
 H        -2.623068         2.908319         1.168720
 H        -1.419006         1.298037        -1.153180
 H        -0.564560         2.525240        -0.427964
 H        -1.262547        -1.583163         0.312839
