19
Iteration:  2707charge 0 multiplicity 1
 O         0.651923         0.287234         0.500294
 C        -0.709904         0.607493         0.813217
 C        -1.299433         0.689568         2.234265
 C        -2.608693         0.048237         1.696549
 C        -3.321720         0.646093         0.499754
 C        -2.715040         2.114013         0.300070
 C        -1.263295         1.875440         0.035812
 O        -2.795049        -0.235015        -0.487037
 C        -1.753961        -0.614656         0.552225
 H         1.151342         1.047371         0.671748
 H        -0.781639         0.011457         2.944867
 H        -1.311004         1.641731         2.848679
 H        -3.304127        -0.510734         2.308612
 H        -4.436429         0.627162         0.415751
 H        -3.197781         2.687599        -0.574504
 H        -3.067454         2.696855         1.178281
 H        -1.148428         1.724211        -1.057888
 H        -0.583205         2.799964         0.416785
 H        -1.339905        -1.645520         0.483708
