19
Iteration:  1124charge 0 multiplicity 1
 O         0.678825         0.322672         0.517881
 C        -0.747197         0.630382         0.808525
 C        -1.269049         0.643397         2.279696
 C        -2.576634         0.029699         1.687148
 C        -3.364098         0.678186         0.488835
 C        -2.697286         2.068296         0.167743
 C        -1.185275         1.937273         0.036667
 O        -2.876313        -0.341232        -0.444607
 C        -1.807320        -0.517672         0.555532
 H         1.243381         1.042530         1.018401
 H        -0.938033        -0.145798         2.916153
 H        -1.025908         1.484009         2.876330
 H        -3.206119        -0.549937         2.513272
 H        -4.440650         0.682991         0.664395
 H        -3.096487         2.466474        -0.812483
 H        -3.022502         2.771659         0.910541
 H        -0.834477         1.889285        -1.023330
 H        -0.725584         2.853075         0.469611
 H        -1.409479        -1.522478         0.434404
