19
Iteration:  1568charge 0 multiplicity 1
 O         0.576573         0.265531         0.457608
 C        -0.736531         0.630642         0.816101
 C        -1.389762         0.621675         2.268506
 C        -2.620623        -0.020696         1.676607
 C        -3.333523         0.711368         0.533698
 C        -2.663342         2.091975         0.233847
 C        -1.173167         1.990555         0.108264
 O        -2.764688        -0.281683        -0.445638
 C        -1.726861        -0.564796         0.530502
 H         1.152555         0.957236         0.328681
 H        -0.878172        -0.132657         2.946993
 H        -1.456351         1.741401         2.856672
 H        -3.295375        -0.638430         2.241775
 H        -4.451545         0.752625         0.466016
 H        -3.119309         2.496900        -0.737077
 H        -2.819763         2.900218         0.941542
 H        -0.778622         1.856760        -0.912794
 H        -0.667698         2.736125         0.631872
 H        -1.326700        -1.631294         0.468179
