19
Iteration:  3556charge 0 multiplicity 1
 O         0.555745         0.307913         0.468133
 C        -0.805961         0.610580         0.848268
 C        -1.335831         0.672461         2.307452
 C        -2.597380        -0.130051         1.711221
 C        -3.294899         0.733966         0.471449
 C        -2.675635         2.077623         0.244126
 C        -1.162005         1.856342         0.013597
 O        -2.780718        -0.191626        -0.450430
 C        -1.720700        -0.494335         0.559132
 H         1.013501         1.109035         0.417326
 H        -0.744245         0.044330         2.954431
 H        -1.438273         1.618014         2.806744
 H        -3.362946        -0.723531         2.235300
 H        -4.403238         0.914645         0.642223
 H        -3.245505         2.339005        -0.604749
 H        -2.937368         2.604112         1.171055
 H        -0.810949         1.471478        -0.939275
 H        -0.407262         2.691911         0.073655
 H        -1.332119        -1.533991         0.530481
