19
Iteration:  1083charge 0 multiplicity 1
 O         0.613327         0.211529         0.721807
 C        -0.768788         0.664487         0.738607
 C        -1.392635         0.822276         2.251657
 C        -2.449406        -0.115216         1.734319
 C        -3.319957         0.661307         0.662483
 C        -2.721455         2.072985         0.334959
 C        -1.231526         1.824867        -0.188636
 O        -2.782196        -0.131528        -0.466842
 C        -1.770894        -0.584685         0.348406
 H         1.128497         0.971978         1.015327
 H        -0.524409         0.496975         2.859852
 H        -1.804589         1.808190         2.563964
 H        -2.989469        -0.825799         2.322683
 H        -4.465780         0.607097         0.549088
 H        -3.377285         2.407554        -0.503915
 H        -2.636117         2.858338         1.114716
 H        -1.181528         1.488194        -1.168900
 H        -0.613621         2.737076        -0.161776
 H        -1.352880        -1.670208         0.188457
