19
Iteration:  3384charge 0 multiplicity 1
 O         0.572684         0.310986         0.657008
 C        -0.774285         0.661269         0.777757
 C        -1.390648         0.649527         2.246523
 C        -2.526250        -0.142094         1.660332
 C        -3.341536         0.701026         0.653723
 C        -2.670166         2.087177         0.271096
 C        -1.131566         1.827291        -0.083739
 O        -2.823129        -0.196800        -0.447195
 C        -1.758467        -0.468754         0.412271
 H         1.226869         0.942887         1.079736
 H        -0.693298        -0.010093         2.758206
 H        -1.442726         1.719001         2.676667
 H        -3.106444        -0.896693         2.310469
 H        -4.415402         0.772829         0.625233
 H        -3.276718         2.586508        -0.522209
 H        -2.730028         2.869976         1.029855
 H        -1.171560         1.596193        -1.114172
 H        -0.365879         2.516894        -0.079310
 H        -1.282831        -1.396337         0.062471
