19
Iteration:  1050charge 0 multiplicity 1
 O         0.630890         0.281547         0.608770
 C        -0.752720         0.642176         0.767924
 C        -1.270061         0.707358         2.238268
 C        -2.584177         0.034743         1.711678
 C        -3.355195         0.699850         0.513922
 C        -2.736678         2.108884         0.298881
 C        -1.219565         1.873668        -0.036658
 O        -2.788837        -0.322143        -0.454086
 C        -1.771000        -0.551810         0.482701
 H         1.189252         1.027836         0.692962
 H        -0.661204        -0.018320         2.840550
 H        -1.324634         1.621321         2.834544
 H        -3.158638        -0.682891         2.297803
 H        -4.468903         0.645424         0.283928
 H        -3.242037         2.690679        -0.530610
 H        -2.796769         2.781395         1.242827
 H        -1.182963         1.561252        -1.045491
 H        -0.613292         2.777768         0.118655
 H        -1.317465        -1.622759         0.505037
