19
Iteration:  1703charge 0 multiplicity 1
 O         0.669900         0.332505         0.508967
 C        -0.740087         0.555141         0.825582
 C        -1.213832         0.589668         2.263078
 C        -2.586726         0.042739         1.687868
 C        -3.366296         0.703612         0.500260
 C        -2.761400         2.093988         0.200090
 C        -1.277213         1.812685         0.125333
 O        -2.809811        -0.173581        -0.525286
 C        -1.768012        -0.541344         0.534026
 H         1.136940         0.801327         1.152307
 H        -0.973394        -0.267043         2.880594
 H        -1.061779         1.649913         2.803917
 H        -3.273336        -0.474169         2.409104
 H        -4.466665         0.617025         0.566081
 H        -3.034942         2.609419        -0.684572
 H        -3.016988         2.883784         0.925105
 H        -0.942395         1.731440        -0.846763
 H        -0.700998         2.627033         0.389352
 H        -1.241376        -1.485225         0.458618
