19
Iteration:  2280
 O         0.636150         0.343197         0.703672
 C        -0.749290         0.688445         0.771547
 C        -1.195676         0.611388         2.201809
 C        -2.518046        -0.007804         1.701279
 C        -3.291510         0.707202         0.497574
 C        -2.768443         2.055835         0.205575
 C        -1.228464         1.957108        -0.004010
 O        -2.877076        -0.304865        -0.428870
 C        -1.822052        -0.547213         0.470252
 H         0.853710         0.059727        -0.285206
 H        -0.655057        -0.123869         2.741876
 H        -1.124788         1.484064         2.864775
 H        -3.130116        -0.512185         2.365189
 H        -4.363003         0.734163         0.634759
 H        -3.450622         2.635384        -0.557935
 H        -2.863341         2.498246         1.265438
 H        -0.816283         1.916437        -1.047578
 H        -0.790222         2.939400         0.469908
 H        -1.301012        -1.507853         0.463447
