19
Iteration:  1307charge 0 multiplicity 1
 O         0.577128         0.107881         0.538666
 C        -0.686557         0.610156         0.796658
 C        -1.242556         0.778727         2.182432
 C        -2.536914         0.018511         1.637125
 C        -3.284954         0.646614         0.495641
 C        -2.831051         2.055665         0.291244
 C        -1.196644         2.023930         0.172163
 O        -2.807291        -0.244490        -0.538942
 C        -1.774664        -0.577365         0.517746
 H         1.213418         0.733445         0.836749
 H        -0.734718         0.207455         3.055713
 H        -1.578086         1.815705         2.691753
 H        -3.204935        -0.291640         2.401189
 H        -4.372027         0.515363         0.642699
 H        -3.132022         2.459020        -0.611611
 H        -3.300967         2.756886         0.946866
 H        -0.883210         2.312324        -0.900443
 H        -0.817384         2.829907         0.799696
 H        -1.241669        -1.525694         0.451592
