19
Iteration:   945charge 0 multiplicity 1
 O         0.657489         0.338935         0.635211
 C        -0.753867         0.613413         0.788842
 C        -1.392834         0.746010         2.249365
 C        -2.535017        -0.060175         1.696660
 C        -3.302799         0.724562         0.532515
 C        -2.684838         2.043605         0.351656
 C        -1.204766         1.789613        -0.096548
 O        -2.804072        -0.236326        -0.475232
 C        -1.828548        -0.570199         0.466887
 H         1.237763         1.208807         0.524523
 H        -0.834219         0.128943         3.018317
 H        -1.348876         1.840359         2.593919
 H        -3.243447        -0.726653         2.322358
 H        -4.367671         0.713376         0.643858
 H        -3.195740         2.646264        -0.312355
 H        -2.760152         2.539176         1.267268
 H        -1.135028         1.651214        -1.226483
 H        -0.529700         2.733073        -0.034942
 H        -1.421788        -1.508707         0.208832
