19
Iteration:  1971
 O         0.594009         0.321835         0.802841
 C        -0.742607         0.627364         0.727788
 C        -1.320710         0.699592         2.240601
 C        -2.451941        -0.099395         1.686638
 C        -3.350393         0.713108         0.610077
 C        -2.696795         2.081290         0.265799
 C        -1.203742         1.853090        -0.131734
 O        -2.878692        -0.203453        -0.421693
 C        -1.699757        -0.458607         0.387405
 H         0.935304        -0.007306         0.026784
 H        -0.731896         0.056343         3.013346
 H        -1.513422         1.705874         2.786310
 H        -3.009406        -0.974393         2.040801
 H        -4.447436         0.663619         0.716704
 H        -3.278980         2.484832        -0.701149
 H        -2.878268         2.722216         1.162538
 H        -1.296671         1.531709        -1.212576
 H        -0.637373         2.753148        -0.028836
 H        -1.369456        -1.505022         0.107284
