19
Iteration:  2076charge 0 multiplicity 1
 O         0.611188         0.349435         0.721959
 C        -0.742197         0.652426         0.756514
 C        -1.359627         0.754245         2.184957
 C        -2.463096        -0.125296         1.678041
 C        -3.333890         0.718096         0.664707
 C        -2.681865         2.058046         0.290267
 C        -1.152722         1.812299        -0.068297
 O        -2.892492        -0.200769        -0.417867
 C        -1.765831        -0.606241         0.380329
 H         1.135057         1.073279         0.181539
 H        -0.776984         0.111263         2.858650
 H        -1.531975         1.812172         2.613293
 H        -3.135849        -0.723041         2.414427
 H        -4.451473         0.770537         0.618239
 H        -3.152550         2.208625        -0.612988
 H        -2.950582         2.973713         0.806235
 H        -1.128868         1.456681        -1.109662
 H        -0.480153         2.696804         0.055611
 H        -1.411234        -1.608157         0.118086
