19
Iteration:  2823
 O         0.610209         0.340129         0.525021
 C        -0.752236         0.606360         0.854445
 C        -1.379732         0.711288         2.243325
 C        -2.614323        -0.117807         1.653586
 C        -3.319943         0.731733         0.526467
 C        -2.660326         2.092572         0.319012
 C        -1.205957         1.838224        -0.048315
 O        -2.825330        -0.191315        -0.440901
 C        -1.696242        -0.594335         0.480396
 H         1.163308         0.964164         0.858218
 H        -0.695510         0.226313         3.006767
 H        -1.408661         1.689492         2.819055
 H        -3.197195        -0.780876         2.458404
 H        -4.407119         0.761010         0.488941
 H        -3.275916         2.629593        -0.379034
 H        -2.663760         2.649310         1.332135
 H        -1.282154         1.566665        -1.113858
 H        -0.416747         2.585033         0.012054
 H        -1.207890        -1.574308         0.255591
