19
Iteration:  4188charge 0 multiplicity 1
 O         0.610707         0.401180         0.695145
 C        -0.714838         0.618701         0.790450
 C        -1.261660         0.578079         2.210050
 C        -2.621059        -0.110626         1.710607
 C        -3.342499         0.759045         0.646587
 C        -2.719202         2.115255         0.213814
 C        -1.188773         1.890051         0.006319
 O        -2.809808        -0.205071        -0.488597
 C        -1.717293        -0.540449         0.437579
 H         0.861797        -0.087145        -0.201899
 H        -0.732225        -0.222082         2.756355
 H        -1.477923         1.433879         2.836074
 H        -3.301213        -0.732614         2.355354
 H        -4.429942         0.790915         0.639453
 H        -3.382850         2.280488        -0.718959
 H        -2.888349         3.093480         0.674388
 H        -1.037647         1.705286        -1.083088
 H        -0.641227         2.854681         0.314681
 H        -1.372273        -1.651932         0.383566
