19
Iteration:  4251charge 0 multiplicity 1
 O         0.656367         0.239215         0.666390
 C        -0.676805         0.641785         0.693633
 C        -1.316493         0.678237         2.184572
 C        -2.626137         0.039223         1.667196
 C        -3.362280         0.671686         0.505686
 C        -2.761684         2.057748         0.376304
 C        -1.225140         1.879536        -0.025683
 O        -2.782408        -0.224141        -0.455570
 C        -1.761148        -0.547795         0.470265
 H         1.219910         1.043388         0.265192
 H        -0.631175         0.071869         2.845101
 H        -1.419106         1.594762         2.827396
 H        -3.124918        -0.510051         2.431626
 H        -4.483093         0.725381         0.349149
 H        -3.303586         2.707296        -0.312604
 H        -2.715963         2.490778         1.384683
 H        -1.064818         1.833075        -1.123338
 H        -0.641772         2.663207         0.321521
 H        -1.438484        -1.596213         0.608523
