19
Iteration:  2640
 O         0.689361         0.272536         0.651769
 C        -0.741373         0.651009         0.769840
 C        -1.299250         0.746713         2.198488
 C        -2.585431        -0.119941         1.697912
 C        -3.366431         0.702159         0.620184
 C        -2.715699         2.046430         0.252986
 C        -1.160926         1.877735        -0.002888
 O        -2.898428        -0.212952        -0.480467
 C        -1.754831        -0.567264         0.460650
 H         1.261097         1.024849         0.214328
 H        -0.717376         0.458138         3.073316
 H        -1.643657         1.809140         2.411968
 H        -2.990118        -1.011414         2.234240
 H        -4.449313         0.697882         0.910164
 H        -3.233709         2.560705        -0.599743
 H        -2.729002         2.928392         0.904457
 H        -0.925350         1.661626        -1.039776
 H        -0.769824         2.767435         0.397209
 H        -1.347935        -1.583885         0.226510
