19
Iteration:  4037charge 0 multiplicity 1
 O         0.598646         0.241654         0.582756
 C        -0.704374         0.578308         0.815345
 C        -1.402474         0.717550         2.259425
 C        -2.585945        -0.008455         1.736584
 C        -3.376428         0.698295         0.538885
 C        -2.740439         2.077938         0.265151
 C        -1.108340         1.869539         0.027467
 O        -2.757510        -0.236860        -0.459912
 C        -1.739180        -0.486063         0.444829
 H         0.786487         0.628018        -0.378651
 H        -0.728729         0.211097         2.946069
 H        -1.526439         1.741207         2.744385
 H        -3.133618        -0.837464         2.249669
 H        -4.465291         0.725858         0.497697
 H        -3.275827         2.667616        -0.514565
 H        -2.688642         2.629083         1.222200
 H        -1.019896         1.798104        -1.043934
 H        -0.621853         2.787735         0.434302
 H        -1.272196        -1.482670         0.266141
