19
Iteration:  1176charge 0 multiplicity 1
 O         0.567773         0.198338         0.473971
 C        -0.802259         0.679965         0.819589
 C        -1.349011         0.694490         2.325402
 C        -2.583991        -0.051791         1.755616
 C        -3.310542         0.709386         0.540600
 C        -2.755052         2.055615         0.170964
 C        -1.149796         1.918630         0.069436
 O        -2.720569        -0.233724        -0.476277
 C        -1.736014        -0.527239         0.529779
 H         1.151336         0.926207         0.219446
 H        -0.509454         0.270051         2.950923
 H        -1.550380         1.749871         2.752514
 H        -3.276505        -0.606913         2.432687
 H        -4.384639         0.699790         0.533780
 H        -3.163126         2.159590        -0.824485
 H        -3.083541         2.844154         1.043323
 H        -0.825844         1.759071        -1.030462
 H        -0.672933         2.823395         0.431907
 H        -1.375854        -1.499475         0.426184
