19
Iteration:  2969
 O         0.636792         0.197178         0.633226
 C        -0.754503         0.647661         0.768095
 C        -1.383906         0.792813         2.243845
 C        -2.499460        -0.123976         1.660960
 C        -3.359638         0.655189         0.650020
 C        -2.696109         2.101817         0.307469
 C        -1.145191         1.926122        -0.045358
 O        -2.833375        -0.237868        -0.484719
 C        -1.757879        -0.528126         0.440394
 H         1.290003         0.976586         0.470538
 H        -0.769888         0.270430         3.060567
 H        -1.678105         1.886181         2.557835
 H        -3.286442        -0.841341         2.239181
 H        -4.473867         0.862650         0.608641
 H        -3.362318         2.435972        -0.551507
 H        -2.905742         2.835799         1.089400
 H        -1.000056         1.686483        -1.119962
 H        -0.547864         2.698331         0.340867
 H        -1.333822        -1.511123         0.062292
