19
Iteration:  2231
 O         0.671012         0.420742         0.633712
 C        -0.739363         0.556966         0.801922
 C        -1.395583         0.730474         2.292732
 C        -2.507273        -0.045809         1.709994
 C        -3.325742         0.659493         0.603162
 C        -2.692650         2.083790         0.331166
 C        -1.193706         1.734635        -0.128396
 O        -2.874118        -0.120095        -0.526795
 C        -1.735326        -0.581459         0.483773
 H         0.883066         0.813790        -0.149825
 H        -0.768428         0.108421         3.025255
 H        -1.567289         1.679050         2.806793
 H        -3.149574        -0.845701         2.284718
 H        -4.463659         0.644345         0.701277
 H        -3.154779         2.558977        -0.451978
 H        -2.683760         2.593600         1.238144
 H        -1.088653         1.390363        -1.199752
 H        -0.573478         2.593440        -0.036770
 H        -1.481903        -1.681564         0.378817
