19
Iteration:  3581charge 0 multiplicity 1
 O         0.655405         0.279384         0.503621
 C        -0.715889         0.577363         0.800956
 C        -1.293251         0.653004         2.264439
 C        -2.588766        -0.025054         1.772839
 C        -3.331999         0.797415         0.555303
 C        -2.785006         2.153544         0.145365
 C        -1.218544         1.886358         0.092168
 O        -2.805968        -0.284999        -0.507583
 C        -1.764255        -0.577919         0.516843
 H         1.221282         1.128711         0.677641
 H        -0.807181        -0.170916         2.777064
 H        -1.297287         1.513748         3.003340
 H        -3.321293        -0.460860         2.556186
 H        -4.408164         0.744222         0.467455
 H        -3.344947         2.226666        -0.773546
 H        -2.991173         2.822150         0.972117
 H        -0.656463         1.815661        -0.845219
 H        -0.646861         2.752624         0.523858
 H        -1.342694        -1.547904         0.359572
