19
Iteration:   847charge 0 multiplicity 1
 O         0.540002         0.166206         0.392754
 C        -0.811604         0.638790         0.837551
 C        -1.389384         0.801511         2.301676
 C        -2.522299        -0.033680         1.708121
 C        -3.236681         0.651734         0.564246
 C        -2.729835         2.031860         0.109873
 C        -1.160653         1.976336         0.131058
 O        -2.764888        -0.237075        -0.442192
 C        -1.756089        -0.573362         0.526814
 H         1.188373         0.951609         0.699540
 H        -0.897650         0.195508         3.074573
 H        -1.568383         1.802916         2.781001
 H        -3.155760        -0.769428         2.454099
 H        -4.280552         0.737729         0.629481
 H        -3.179565         2.255846        -0.874998
 H        -2.973726         2.805937         0.796527
 H        -0.508635         2.211018        -0.730199
 H        -0.906212         2.800239         0.748275
 H        -1.219256        -1.470828         0.487570
