19
Iteration:  3065charge 0 multiplicity 1
 O         0.556462         0.182062         0.621213
 C        -0.813030         0.759919         0.758216
 C        -1.389121         0.755331         2.207475
 C        -2.540074        -0.133915         1.679782
 C        -3.259585         0.681864         0.555660
 C        -2.676420         2.070628         0.305547
 C        -1.105047         1.882683        -0.036364
 O        -2.850566        -0.243114        -0.436502
 C        -1.709667        -0.507686         0.429760
 H         1.097717         0.909502         0.774286
 H        -0.669050         0.281352         2.897471
 H        -1.727903         1.692338         2.656391
 H        -3.171767        -0.804573         2.337688
 H        -4.319895         0.748202         0.571395
 H        -3.175158         2.569381        -0.501846
 H        -2.842142         2.675841         1.221596
 H        -1.153106         1.733255        -1.114668
 H        -0.631157         2.835677         0.399676
 H        -1.163868        -1.462568         0.434852
