19
Iteration:  2983
 O         0.549570         0.258736         0.575758
 C        -0.742734         0.670635         0.794013
 C        -1.383640         0.659766         2.210774
 C        -2.530315        -0.099867         1.684560
 C        -3.255734         0.755104         0.541924
 C        -2.664021         2.067784         0.208512
 C        -1.161455         1.921752         0.043120
 O        -2.879649        -0.256232        -0.388487
 C        -1.727325        -0.566139         0.443798
 H         1.081160         1.011210         0.597522
 H        -0.795242         0.223091         3.109953
 H        -1.659403         1.710910         2.671727
 H        -3.036999        -0.828258         2.329509
 H        -4.393672         0.726865         0.677205
 H        -3.086571         2.560591        -0.725669
 H        -2.827305         2.698913         1.068654
 H        -0.924408         1.892490        -1.050888
 H        -0.682877         2.891438         0.271825
 H        -1.190269        -1.528586         0.369093
