19
Iteration:   310charge 0 multiplicity 1
 O         0.654771         0.267870         0.673687
 C        -0.690983         0.619869         0.758447
 C        -1.292672         0.715316         2.177606
 C        -2.511681        -0.016360         1.669527
 C        -3.372563         0.674857         0.592806
 C        -2.757655         2.029202         0.167451
 C        -1.215414         1.898366        -0.035296
 O        -2.852766        -0.165432        -0.437287
 C        -1.767325        -0.566209         0.503078
 H         1.147873         0.501119         1.513434
 H        -0.812586         0.063161         2.858706
 H        -1.353619         1.733712         2.476098
 H        -3.075639        -0.681958         2.387540
 H        -4.495255         0.650503         0.738447
 H        -3.248382         2.420419        -0.790902
 H        -2.958130         2.701917         0.994900
 H        -1.018401         1.809625        -1.116324
 H        -0.748127         2.727349         0.244293
 H        -1.345107        -1.510076         0.342079
