19
Iteration:  2037charge 0 multiplicity 1
 O         0.665738         0.380204         0.570319
 C        -0.717897         0.613425         0.836818
 C        -1.175987         0.619192         2.318614
 C        -2.581549         0.112601         1.704728
 C        -3.318698         0.721736         0.438909
 C        -2.774167         2.078053         0.181853
 C        -1.240062         1.965266         0.091249
 O        -2.766412        -0.319543        -0.471412
 C        -1.903998        -0.644891         0.555029
 H         0.722763         0.345230        -0.451691
 H        -0.878518        -0.349221         2.815256
 H        -1.052650         1.486294         3.039335
 H        -3.107331        -0.419691         2.497119
 H        -4.411671         0.705538         0.453689
 H        -3.156435         2.441979        -0.896053
 H        -3.107794         2.647059         1.081186
 H        -1.059405         1.795536        -1.017518
 H        -0.660081         2.813140         0.429108
 H        -1.501005        -1.701786         0.381970
