19
Iteration:  3156
 O         0.542011         0.261064         0.515778
 C        -0.751538         0.634046         0.810727
 C        -1.352228         0.632431         2.250564
 C        -2.578032        -0.016317         1.675474
 C        -3.367659         0.680415         0.543931
 C        -2.678720         2.167303         0.239731
 C        -1.134669         1.949571         0.101802
 O        -2.789532        -0.304640        -0.444296
 C        -1.746320        -0.556632         0.484010
 H         1.139835         1.035635         0.351879
 H        -0.788271         0.045802         2.938197
 H        -1.378647         1.581173         2.758545
 H        -3.320834        -0.635630         2.341555
 H        -4.425901         0.495076         0.264554
 H        -2.942777         2.537868        -0.805577
 H        -2.953470         2.899499         0.975517
 H        -0.684133         1.851045        -0.913070
 H        -0.624568         2.781151         0.725768
 H        -1.132054        -1.476026         0.380139
