19
Iteration:  3087
 O         0.622061         0.202230         0.751471
 C        -0.729162         0.660651         0.740934
 C        -1.284309         0.691164         2.226145
 C        -2.547429        -0.064029         1.649286
 C        -3.339436         0.703110         0.562388
 C        -2.715915         2.120268         0.320953
 C        -1.244746         1.913166        -0.105198
 O        -2.823413        -0.235919        -0.495845
 C        -1.761824        -0.547040         0.397987
 H         1.289004         1.027883         0.682103
 H        -0.822380         0.312774         3.133121
 H        -1.555868         1.721052         2.600578
 H        -3.098394        -0.704312         2.410469
 H        -4.343306         0.652480         0.856530
 H        -3.304051         2.597005        -0.438423
 H        -2.688990         2.743453         1.236830
 H        -1.214385         1.598915        -1.178038
 H        -0.534475         2.770670         0.270710
 H        -1.408148        -1.600093         0.259243
