19
Iteration:  2539charge 0 multiplicity 1
 O         0.647386         0.335927         0.822446
 C        -0.736067         0.650698         0.714545
 C        -1.241430         0.713540         2.101191
 C        -2.501922        -0.090365         1.704666
 C        -3.328016         0.706762         0.601304
 C        -2.763589         2.084168         0.282003
 C        -1.232708         1.920533        -0.080652
 O        -2.895243        -0.256163        -0.408673
 C        -1.767456        -0.591013         0.364694
 H         1.048297         0.096168        -0.073447
 H        -0.673951         0.129600         2.813906
 H        -1.312781         1.661575         2.634802
 H        -3.220211        -0.533104         2.525882
 H        -4.436811         0.756991         0.713467
 H        -3.172087         2.566751        -0.579278
 H        -2.673731         2.690312         1.195792
 H        -1.144693         1.773623        -1.126076
 H        -0.679087         2.727357         0.208369
 H        -1.292996        -1.561687         0.257495
