19
Iteration:  3192charge 0 multiplicity 1
 O         0.615702         0.145426         0.634912
 C        -0.693473         0.615640         0.778056
 C        -1.294139         0.714205         2.241467
 C        -2.518500        -0.024119         1.698429
 C        -3.380546         0.692422         0.497120
 C        -2.823978         2.142178         0.309553
 C        -1.230418         1.924145         0.053317
 O        -2.777493        -0.182402        -0.503471
 C        -1.727954        -0.587897         0.418315
 H         1.213445         0.855071         1.009522
 H        -0.670833         0.104562         2.925488
 H        -1.462982         1.737262         2.526971
 H        -3.075811        -0.579900         2.373767
 H        -4.450472         0.488734         0.742785
 H        -3.394536         2.431814        -0.580649
 H        -2.814879         3.024557         0.945843
 H        -1.030125         1.830248        -1.023676
 H        -0.732054         2.829357         0.343067
 H        -1.340339        -1.541161         0.113174
