19
Iteration:  4421
 O         0.680723         0.334531         0.679320
 C        -0.674086         0.591700         0.730827
 C        -1.248700         0.672779         2.147976
 C        -2.615393         0.022503         1.690087
 C        -3.305150         0.738464         0.506082
 C        -2.755517         2.020942         0.264656
 C        -1.185608         1.876308         0.052617
 O        -2.879217        -0.292176        -0.481788
 C        -1.834687        -0.543388         0.504185
 H         1.129774         1.039279         0.045542
 H        -1.012809        -0.149395         2.782354
 H        -1.292742         1.408687         2.927537
 H        -3.313022        -0.378001         2.408374
 H        -4.377576         0.678963         0.479223
 H        -3.161120         2.734764        -0.476970
 H        -2.835568         2.630882         1.154042
 H        -0.875538         2.036139        -0.950837
 H        -0.659616         2.609605         0.646965
 H        -1.371963        -1.530594         0.500545
