19
Iteration:  3033charge 0 multiplicity 1
 O         0.690887         0.268664         0.483908
 C        -0.779657         0.593882         0.788055
 C        -1.270407         0.677260         2.308206
 C        -2.604762         0.028398         1.694856
 C        -3.315876         0.759123         0.483864
 C        -2.839091         2.122999         0.178336
 C        -1.267312         1.792488         0.089233
 O        -2.751286        -0.204802        -0.467428
 C        -1.758701        -0.575965         0.507253
 H         1.254006         0.968926         1.052072
 H        -0.783239        -0.040816         2.910864
 H        -1.235186         1.422878         3.052732
 H        -3.235085        -0.425795         2.563397
 H        -4.352824         0.550344         0.613661
 H        -3.179618         2.410331        -0.810035
 H        -3.029638         2.868677         0.968381
 H        -0.811467         1.854720        -0.920018
 H        -0.552845         2.548354         0.575092
 H        -1.454542        -1.643644         0.556924
