19
Iteration:  2147
 O         0.518585         0.329107         0.359895
 C        -0.702120         0.578587         0.817948
 C        -1.283903         0.707360         2.405227
 C        -2.598987        -0.030642         1.772496
 C        -3.412535         0.746749         0.501537
 C        -2.700257         2.102004         0.174164
 C        -1.171979         1.832262         0.017501
 O        -2.688394        -0.244272        -0.411370
 C        -1.772640        -0.611475         0.548413
 H         1.214724         1.068420         0.666464
 H        -0.705250         0.036615         3.067671
 H        -1.619108         1.632001         2.806937
 H        -3.152413        -0.730046         2.339649
 H        -4.497440         0.629658         0.468396
 H        -3.213431         2.541028        -0.816647
 H        -3.061693         2.945497         0.846586
 H        -0.797086         1.899412        -1.048138
 H        -0.765339         2.669659         0.628671
 H        -1.351074        -1.637231         0.448087
