19
Iteration:  4310charge 0 multiplicity 1
 O         0.706736         0.299588         0.510140
 C        -0.740312         0.660809         0.746041
 C        -1.256287         0.631593         2.244420
 C        -2.654354        -0.030027         1.766759
 C        -3.379657         0.691787         0.577305
 C        -2.717525         2.072088         0.138902
 C        -1.171164         1.884439         0.104415
 O        -2.845927        -0.235970        -0.443612
 C        -1.777971        -0.504232         0.484667
 H         1.186476         0.782518         1.099694
 H        -0.595920        -0.090318         2.711181
 H        -1.365176         1.586638         2.803479
 H        -3.324088        -0.627249         2.459855
 H        -4.431955         0.635432         0.398112
 H        -3.226452         2.461877        -0.831611
 H        -3.069952         2.712875         0.975687
 H        -0.917020         1.771412        -0.940406
 H        -0.609676         2.776382         0.530673
 H        -1.426771        -1.590260         0.410572
