19
Iteration:  4400charge 0 multiplicity 1
 O         0.586724         0.235415         0.665905
 C        -0.790125         0.607857         0.737513
 C        -1.273292         0.685219         2.234029
 C        -2.551760        -0.073169         1.735397
 C        -3.355297         0.719348         0.540689
 C        -2.722435         2.145620         0.265895
 C        -1.248209         1.949840         0.013214
 O        -2.749892        -0.229066        -0.473806
 C        -1.729503        -0.612138         0.439163
 H         1.134350         0.873262         0.346452
 H        -0.713468         0.077028         2.968773
 H        -1.326692         1.689308         2.687408
 H        -3.164935        -0.716344         2.345984
 H        -4.455053         0.696951         0.447396
 H        -3.185362         2.745686        -0.571492
 H        -2.946450         2.942507         1.024160
 H        -1.219549         1.664784        -1.048633
 H        -0.470735         2.785202         0.140162
 H        -1.369610        -1.622124         0.434990
