19
Iteration:  2724charge 0 multiplicity 1
 O         0.538757         0.247793         0.469108
 C        -0.772580         0.610372         0.775053
 C        -1.319460         0.763485         2.239853
 C        -2.544046        -0.054062         1.711027
 C        -3.356931         0.754389         0.555632
 C        -2.768258         2.072795         0.247805
 C        -1.172565         1.875768         0.127222
 O        -2.717341        -0.268825        -0.465227
 C        -1.750135        -0.553074         0.485183
 H         1.016295         0.990796         0.657157
 H        -0.824267         0.213388         3.039120
 H        -1.509719         1.803336         2.484332
 H        -3.093811        -0.928051         2.285033
 H        -4.442255         0.842493         0.639608
 H        -3.102229         2.313219        -0.720823
 H        -2.839697         2.691425         1.147557
 H        -0.652987         1.941007        -0.823678
 H        -0.613464         2.672829         0.555963
 H        -1.251515        -1.530745         0.402833
