19
Iteration:    86
 O         0.597186         0.285568         0.471731
 C        -0.740041         0.606865         0.802616
 C        -1.247849         0.699356         2.277946
 C        -2.556848        -0.056649         1.733692
 C        -3.327766         0.729979         0.500933
 C        -2.749382         2.067583         0.070476
 C        -1.176172         1.964109         0.126158
 O        -2.804650        -0.253754        -0.446139
 C        -1.808718        -0.587547         0.545939
 H         1.177794         0.184224         1.305589
 H        -0.668777         0.119138         3.108615
 H        -1.353938         1.743305         2.718720
 H        -3.244816        -0.582553         2.396583
 H        -4.398419         0.827972         0.516939
 H        -3.185319         2.272113        -0.862677
 H        -3.138344         2.877271         0.821712
 H        -0.803619         2.129648        -0.823275
 H        -0.904432         2.765271         0.791099
 H        -1.255282        -1.617671         0.350298
