19
Iteration:   698charge 0 multiplicity 1
 O         0.623200         0.372355         0.430425
 C        -0.763758         0.551913         0.807413
 C        -1.342410         0.799378         2.334607
 C        -2.638101         0.029223         1.741268
 C        -3.263149         0.684078         0.436345
 C        -2.720147         2.081808         0.220501
 C        -1.159825         1.889088         0.127230
 O        -2.706288        -0.302387        -0.489095
 C        -1.834792        -0.624872         0.633363
 H         0.618997         0.030678        -0.478616
 H        -0.916540         0.187877         3.180575
 H        -1.562993         1.853080         2.586424
 H        -3.385468        -0.379856         2.331142
 H        -4.443172         0.664819         0.464564
 H        -3.068280         2.425790        -0.708405
 H        -2.911072         2.755168         1.061091
 H        -0.890735         1.743841        -0.967821
 H        -0.564472         2.596732         0.802972
 H        -1.250506        -1.609175         0.493972
