19
Iteration:  2805charge 0 multiplicity 1
 O         0.664403         0.429394         0.534341
 C        -0.721135         0.606846         0.719225
 C        -1.387923         0.624493         2.237381
 C        -2.558217        -0.060064         1.706593
 C        -3.324924         0.724501         0.577858
 C        -2.652935         2.142804         0.362862
 C        -1.234681         1.744515        -0.056175
 O        -2.756875        -0.228597        -0.480598
 C        -1.846699        -0.609838         0.488432
 H         0.906221         1.144994         1.030653
 H        -0.878400         0.102480         3.033692
 H        -1.520619         1.593702         2.665344
 H        -3.313000        -0.554751         2.277505
 H        -4.415948         0.785480         0.674585
 H        -3.081083         2.770354        -0.426617
 H        -2.647923         2.845889         1.150693
 H        -1.127298         1.435981        -1.085321
 H        -0.563793         2.563083         0.282197
 H        -1.531806        -1.666582         0.531240
