19
Iteration:   843
 O         0.520662         0.201598         0.398556
 C        -0.821872         0.639601         0.852077
 C        -1.361119         0.794774         2.309103
 C        -2.539602        -0.046567         1.712852
 C        -3.253266         0.672037         0.555890
 C        -2.725926         2.060632         0.094611
 C        -1.147247         1.956258         0.115053
 O        -2.738478        -0.249343        -0.441209
 C        -1.743286        -0.563825         0.550608
 H         1.111651         0.839845         0.606122
 H        -0.824852         0.084371         2.976171
 H        -1.633755         1.727132         2.923678
 H        -3.136273        -0.676435         2.259805
 H        -4.364802         0.741523         0.577775
 H        -3.244865         2.223649        -0.793278
 H        -3.000124         2.761554         0.930842
 H        -0.628083         1.927080        -0.875332
 H        -0.785916         2.932714         0.780422
 H        -1.276106        -1.642922         0.442597
