19
Iteration:  4523
 O         0.633313         0.366595         0.699758
 C        -0.764510         0.610671         0.723131
 C        -1.371484         0.704186         2.190849
 C        -2.619104        -0.082308         1.683761
 C        -3.324905         0.734440         0.517901
 C        -2.673399         2.082234         0.329764
 C        -1.118375         1.891411         0.021169
 O        -2.831440        -0.217997        -0.491877
 C        -1.768738        -0.655859         0.487961
 H         1.094907         0.567086        -0.156417
 H        -0.710513         0.035688         2.731143
 H        -1.528610         1.716669         2.417780
 H        -3.126162        -0.755509         2.396969
 H        -4.441245         0.738265         0.520517
 H        -3.166125         2.847520        -0.264915
 H        -2.731359         2.673877         1.299193
 H        -1.062054         1.585239        -1.027026
 H        -0.455759         2.758392         0.338598
 H        -1.394393        -1.646871         0.404249
