19
Iteration:  1387charge 0 multiplicity 1
 O         0.710029         0.383810         0.748375
 C        -0.727311         0.549597         0.784727
 C        -1.325131         0.671600         2.139977
 C        -2.610026        -0.013670         1.620163
 C        -3.338218         0.731292         0.585548
 C        -2.706899         2.081945         0.319075
 C        -1.192300         1.785920        -0.059929
 O        -2.886206        -0.180019        -0.456571
 C        -1.760981        -0.597277         0.410732
 H         1.105045         1.214452         0.484211
 H        -0.756286        -0.066251         2.711481
 H        -1.225708         1.692164         2.714126
 H        -3.189633        -0.722465         2.289713
 H        -4.415316         0.817467         0.584242
 H        -3.156291         2.587534        -0.497624
 H        -2.785699         2.489860         1.346023
 H        -1.177567         1.489748        -1.091230
 H        -0.490971         2.641282         0.155748
 H        -1.534824        -1.601430         0.469237
