19
Iteration:   307charge 0 multiplicity 1
 O         0.660241         0.259664         0.652580
 C        -0.701446         0.621426         0.765177
 C        -1.290959         0.710721         2.193522
 C        -2.527787        -0.021897         1.671048
 C        -3.393035         0.676054         0.605497
 C        -2.751098         2.052227         0.141934
 C        -1.224283         1.893470        -0.025248
 O        -2.837958        -0.181691        -0.432319
 C        -1.764804        -0.553846         0.500004
 H         1.044107         0.519463         1.440161
 H        -0.814367        -0.022740         2.870389
 H        -1.357286         1.756829         2.544565
 H        -3.057170        -0.684390         2.358889
 H        -4.432255         0.626135         0.748557
 H        -3.168288         2.345629        -0.769818
 H        -2.985676         2.849950         0.946064
 H        -0.989761         1.787365        -1.089001
 H        -0.702945         2.872316         0.291688
 H        -1.227959        -1.521875         0.344706
