19
Iteration:  4295charge 0 multiplicity 1
 O         0.586809         0.280160         0.439105
 C        -0.704701         0.607301         0.872174
 C        -1.374356         0.652151         2.337048
 C        -2.542281        -0.089061         1.676885
 C        -3.324440         0.747873         0.575196
 C        -2.735281         2.054461         0.173632
 C        -1.194077         1.935450        -0.002917
 O        -2.800174        -0.184786        -0.419727
 C        -1.748563        -0.556676         0.510525
 H         1.286748         0.825615         0.943627
 H        -1.031717        -0.077666         3.098067
 H        -1.449064         1.664893         2.761960
 H        -3.124647        -0.809237         2.231767
 H        -4.399549         0.803759         0.825159
 H        -3.087320         2.219265        -0.813244
 H        -2.873485         2.887802         0.812215
 H        -0.859184         1.719090        -1.032297
 H        -0.724839         2.808089         0.314204
 H        -1.216771        -1.471500         0.270508
