19
Iteration:  3380
 O         0.585232         0.332271         0.669873
 C        -0.751798         0.621409         0.811321
 C        -1.343042         0.639783         2.227191
 C        -2.561384        -0.146532         1.658439
 C        -3.340030         0.676649         0.614733
 C        -2.671206         2.111864         0.257559
 C        -1.133794         1.832057        -0.107108
 O        -2.849068        -0.168786        -0.427520
 C        -1.760678        -0.461648         0.408689
 H         1.255298         0.946379         1.079207
 H        -0.693657        -0.099368         2.778929
 H        -1.512071         1.650931         2.661321
 H        -3.125393        -0.866564         2.220256
 H        -4.471473         0.636524         0.740703
 H        -3.335507         2.562099        -0.468433
 H        -2.721735         2.918136         1.051936
 H        -1.265286         1.497304        -1.189448
 H        -0.311068         2.646299        -0.052611
 H        -1.233811        -1.474305         0.288564
