19
Iteration:  1709charge 0 multiplicity 1
 O         0.650409         0.316748         0.467346
 C        -0.706311         0.567278         0.851387
 C        -1.230180         0.588535         2.308545
 C        -2.612048         0.059246         1.699742
 C        -3.402197         0.747261         0.500555
 C        -2.757200         2.082647         0.202384
 C        -1.240956         1.870768         0.153723
 O        -2.787610        -0.209316        -0.527614
 C        -1.777319        -0.556273         0.502964
 H         1.118469         0.825514         1.161769
 H        -0.775381        -0.244061         2.924416
 H        -1.094632         1.506444         2.795161
 H        -3.074435        -0.550990         2.477837
 H        -4.506177         0.749183         0.428137
 H        -3.180348         2.242278        -0.893738
 H        -3.108371         2.886069         0.871941
 H        -0.950424         1.639605        -0.968547
 H        -0.637256         2.794938         0.595547
 H        -1.258732        -1.565160         0.369058
