19
Iteration:  3490
 O         0.622773         0.289008         0.648521
 C        -0.722522         0.602216         0.795038
 C        -1.339893         0.664507         2.242842
 C        -2.525500        -0.053250         1.646308
 C        -3.310160         0.720965         0.644689
 C        -2.733366         2.012216         0.220617
 C        -1.135135         1.892352        -0.052614
 O        -2.866416        -0.175392        -0.457498
 C        -1.775349        -0.531002         0.451644
 H         1.030886         1.244033         0.477389
 H        -0.756606        -0.062389         2.823650
 H        -1.530031         1.548657         2.820161
 H        -3.129578        -0.719061         2.261803
 H        -4.417905         0.803927         0.621772
 H        -3.300201         2.341405        -0.621301
 H        -2.811097         2.644154         1.121388
 H        -1.150162         1.734897        -1.130921
 H        -0.569360         2.807205         0.328175
 H        -1.339591        -1.543991         0.297209
