19
Iteration:  4473charge 0 multiplicity 1
 O         0.594739         0.310732         0.710354
 C        -0.779689         0.595667         0.794301
 C        -1.291702         0.624077         2.249313
 C        -2.572025        -0.070187         1.715384
 C        -3.293537         0.722099         0.586260
 C        -2.784333         2.075828         0.243279
 C        -1.167651         1.909330        -0.087037
 O        -2.740771        -0.133848        -0.455833
 C        -1.784077        -0.535375         0.460483
 H         0.656055        -0.033506        -0.180086
 H        -0.635739        -0.146630         2.804019
 H        -1.417791         1.649603         2.817816
 H        -3.178106        -0.792519         2.368031
 H        -4.358677         0.490332         0.620874
 H        -3.259640         2.433708        -0.729276
 H        -2.984516         2.927962         0.880504
 H        -0.914695         1.865132        -1.203815
 H        -0.640975         2.712534         0.401573
 H        -1.226911        -1.472136         0.051386
