19
Iteration:  3271charge 0 multiplicity 1
 O         0.646867         0.259703         0.615339
 C        -0.746297         0.571185         0.771129
 C        -1.307455         0.641948         2.203724
 C        -2.557039         0.002651         1.731769
 C        -3.343427         0.712688         0.535980
 C        -2.799843         2.095999         0.246954
 C        -1.181184         1.898423         0.067297
 O        -2.798500        -0.174869        -0.521914
 C        -1.790183        -0.584856         0.454484
 H         1.204970         0.981928         0.808914
 H        -0.718670         0.038436         2.971975
 H        -1.084670         1.638987         2.686892
 H        -3.181652        -0.507910         2.424423
 H        -4.427872         0.507452         0.666876
 H        -3.396835         2.436425        -0.593732
 H        -2.822467         2.767354         1.183328
 H        -0.969513         1.868943        -1.004653
 H        -0.584738         2.738517         0.351609
 H        -1.266059        -1.572295         0.304410
