19
Iteration:  4122
 O         0.588900         0.327595         0.616432
 C        -0.719348         0.591132         0.796442
 C        -1.370281         0.672018         2.301834
 C        -2.574611        -0.118751         1.732246
 C        -3.283596         0.755724         0.552877
 C        -2.694419         2.136967         0.276782
 C        -1.227957         1.872117        -0.058568
 O        -2.793237        -0.205097        -0.503496
 C        -1.754876        -0.616342         0.520614
 H         0.816283         0.652182        -0.199512
 H        -0.705480         0.027623         2.892488
 H        -1.464578         1.666958         2.655149
 H        -3.266968        -0.747857         2.306510
 H        -4.370180         0.732293         0.539505
 H        -3.116774         2.798624        -0.565433
 H        -2.737496         2.774050         1.178672
 H        -0.869839         1.756598        -1.132805
 H        -0.635620         2.714250         0.427239
 H        -1.255938        -1.536462         0.067152
