19
Iteration:   891
 O         0.595169         0.289683         0.649860
 C        -0.718790         0.642084         0.752587
 C        -1.263958         0.608621         2.267414
 C        -2.529023         0.035600         1.729984
 C        -3.308407         0.710192         0.539011
 C        -2.733660         2.062480         0.142517
 C        -1.223184         1.908876        -0.022658
 O        -2.889805        -0.281981        -0.468076
 C        -1.740219        -0.536693         0.487515
 H         1.297850         1.013133         0.815189
 H        -0.725871        -0.155369         2.874954
 H        -1.198361         1.538336         2.922273
 H        -3.320642        -0.571352         2.427650
 H        -4.374389         0.719663         0.703591
 H        -3.256825         2.530662        -0.702196
 H        -2.887548         2.643258         1.008849
 H        -0.869864         2.010639        -1.090946
 H        -0.738246         2.786482         0.501855
 H        -1.384460        -1.502918         0.306244
