19
Iteration:  1572charge 0 multiplicity 1
 O         0.544033         0.290081         0.440146
 C        -0.699479         0.611988         0.830490
 C        -1.387504         0.640305         2.290737
 C        -2.616927        -0.007522         1.652966
 C        -3.346425         0.722882         0.517359
 C        -2.651441         2.087472         0.219903
 C        -1.158956         1.988257         0.135407
 O        -2.760563        -0.301030        -0.443822
 C        -1.757181        -0.584164         0.545979
 H         1.244516         1.037934         0.227229
 H        -0.919408        -0.094168         2.914414
 H        -1.441004         1.482269         2.772345
 H        -3.283374        -0.690251         2.276112
 H        -4.443998         0.819795         0.543451
 H        -2.862408         2.448887        -0.766131
 H        -2.948527         2.839091         1.012467
 H        -0.921986         1.884923        -0.924389
 H        -0.610075         2.838753         0.645406
 H        -1.312263        -1.593002         0.477669
