19
Iteration:  2106
 O         0.706706         0.238725         0.746508
 C        -0.746289         0.653930         0.711549
 C        -1.286179         0.771234         2.197438
 C        -2.516080        -0.063204         1.681674
 C        -3.422524         0.736902         0.567032
 C        -2.758909         2.058695         0.349380
 C        -1.275404         1.841104        -0.149123
 O        -2.813646        -0.275373        -0.437282
 C        -1.756787        -0.531439         0.443923
 H         1.178890         0.993581         0.600259
 H        -0.698223         0.008205         2.671270
 H        -1.295740         1.864030         2.615511
 H        -3.033109        -0.678283         2.357992
 H        -4.473074         0.743285         0.391376
 H        -3.316901         2.802901        -0.300339
 H        -2.593435         2.657459         1.271254
 H        -1.159093         1.625738        -1.155976
 H        -0.722669         2.786698         0.104972
 H        -1.405750        -1.516831         0.314236
