19
Iteration:  3204charge 0 multiplicity 1
 O         0.597203         0.220328         0.634007
 C        -0.774472         0.610096         0.781976
 C        -1.300405         0.655009         2.171801
 C        -2.551457        -0.104251         1.668274
 C        -3.301009         0.744644         0.639995
 C        -2.815672         2.140762         0.254330
 C        -1.190526         1.857651        -0.022577
 O        -2.764165        -0.170930        -0.483176
 C        -1.721833        -0.497308         0.445298
 H         1.170043         0.854876         1.212526
 H        -0.799583         0.109275         3.006589
 H        -1.457284         1.654354         2.593705
 H        -3.118063        -0.723706         2.248302
 H        -4.411916         0.768844         0.607112
 H        -3.218272         2.668996        -0.585163
 H        -3.125600         2.585778         1.224728
 H        -1.151025         1.531400        -1.068668
 H        -0.522804         2.633746         0.186938
 H        -1.204456        -1.440299         0.323575
