19
Iteration:  3641charge 0 multiplicity 1
 O         0.563884         0.261008         0.548201
 C        -0.721210         0.652056         0.777504
 C        -1.394136         0.718443         2.283142
 C        -2.529922        -0.165243         1.715238
 C        -3.323294         0.713513         0.561557
 C        -2.670279         2.080598         0.285126
 C        -1.177263         1.890198        -0.083259
 O        -2.788269        -0.202540        -0.435763
 C        -1.732935        -0.528001         0.470988
 H         1.270436         0.859635         1.027977
 H        -0.862122         0.173731         3.131787
 H        -1.799209         1.625885         2.729622
 H        -3.078259        -0.819181         2.343520
 H        -4.416069         0.946603         0.496571
 H        -3.359622         2.571479        -0.465051
 H        -2.765652         2.908782         1.026310
 H        -1.161011         1.542377        -1.170814
 H        -0.623106         2.831038         0.003864
 H        -1.399947        -1.604347         0.386895
