19
Iteration:  3066
 O         0.556769         0.177363         0.626048
 C        -0.811698         0.753560         0.758312
 C        -1.395252         0.766849         2.218552
 C        -2.529473        -0.132544         1.680452
 C        -3.264347         0.685119         0.567994
 C        -2.675946         2.074002         0.307768
 C        -1.101771         1.885212        -0.042755
 O        -2.852198        -0.247371        -0.441572
 C        -1.708341        -0.513050         0.421912
 H         1.108447         0.950679         0.772810
 H        -0.690105         0.247179         2.844856
 H        -1.722613         1.691954         2.632168
 H        -3.182956        -0.832786         2.346889
 H        -4.331728         0.762520         0.536757
 H        -3.188296         2.607864        -0.498907
 H        -2.840552         2.665852         1.215793
 H        -1.158528         1.747231        -1.106721
 H        -0.665815         2.822460         0.379254
 H        -1.136007        -1.465369         0.412785
