19
Iteration:  3389
 O         0.566645         0.267644         0.634566
 C        -0.798191         0.718827         0.735448
 C        -1.427461         0.684958         2.262180
 C        -2.502328        -0.139791         1.692629
 C        -3.327295         0.750490         0.676811
 C        -2.664230         2.065822         0.293376
 C        -1.170392         1.819605        -0.053979
 O        -2.803961        -0.222164        -0.483024
 C        -1.740152        -0.517700         0.412391
 H         1.088011         0.997026         1.101272
 H        -0.690791         0.114764         2.854218
 H        -1.431346         1.620600         2.736450
 H        -3.014343        -0.819630         2.308901
 H        -4.422632         0.923646         0.528731
 H        -3.114761         2.498427        -0.619895
 H        -2.766744         2.771466         1.145617
 H        -1.002017         1.556034        -1.163133
 H        -0.381502         2.692186         0.035303
 H        -1.287842        -1.358393        -0.139505
