19
Iteration:  4639charge 0 multiplicity 1
 O         0.650522         0.301483         0.712592
 C        -0.689594         0.681441         0.797850
 C        -1.368358         0.636534         2.237291
 C        -2.594981        -0.002083         1.677066
 C        -3.330244         0.720204         0.530780
 C        -2.704083         2.064150         0.346961
 C        -1.230362         1.790315        -0.055598
 O        -2.782416        -0.129554        -0.491526
 C        -1.770463        -0.549654         0.457006
 H         0.791218         0.348142        -0.309615
 H        -0.840521        -0.117323         2.784897
 H        -1.444711         1.530188         2.868086
 H        -3.101968        -0.771685         2.194812
 H        -4.393249         0.686529         0.365923
 H        -3.269805         2.525837        -0.455219
 H        -2.682503         2.696242         1.187506
 H        -0.938681         1.381964        -1.039982
 H        -0.818673         2.775421         0.047247
 H        -1.306928        -1.574170         0.368407
