19
Iteration:  2115
 O         0.614339         0.254754         0.680920
 C        -0.704765         0.673904         0.720771
 C        -1.294364         0.715491         2.147953
 C        -2.578992         0.030527         1.681825
 C        -3.386082         0.683829         0.516277
 C        -2.753640         2.119672         0.393764
 C        -1.224507         1.838003        -0.093621
 O        -2.791739        -0.280007        -0.417389
 C        -1.711491        -0.562207         0.475975
 H         1.171319         0.961973         0.624855
 H        -0.683805         0.072144         2.781538
 H        -1.268915         1.563493         2.865642
 H        -3.064456        -0.524470         2.415378
 H        -4.464373         0.584501         0.486513
 H        -3.208609         2.593079        -0.583665
 H        -2.908922         2.676613         1.375238
 H        -1.331391         1.570273        -1.148427
 H        -0.648772         2.787803        -0.078142
 H        -1.283620        -1.560775         0.367571
