19
Iteration:  2055
 O         0.625388         0.383088         0.622858
 C        -0.751280         0.627645         0.767886
 C        -1.283142         0.571636         2.292176
 C        -2.579667        -0.056113         1.739870
 C        -3.304128         0.736770         0.567802
 C        -2.738492         2.082315         0.124970
 C        -1.179064         1.856861        -0.015837
 O        -2.864385        -0.244378        -0.451892
 C        -1.735561        -0.527547         0.559730
 H         0.874093         0.854002        -0.242197
 H        -0.596086        -0.086288         2.813650
 H        -1.390405         1.532377         2.705407
 H        -3.298727        -0.715751         2.364213
 H        -4.416447         0.717368         0.697598
 H        -3.128547         2.502173        -0.740296
 H        -2.833536         2.840036         0.900564
 H        -0.855723         1.729716        -1.090128
 H        -0.729098         2.770944         0.381909
 H        -1.322461        -1.548213         0.477487
