19
Iteration:  1431
 O         0.529136         0.240043         0.583068
 C        -0.750720         0.669312         0.824884
 C        -1.327316         0.642565         2.200315
 C        -2.512239         0.000689         1.681735
 C        -3.311814         0.738119         0.552041
 C        -2.716902         2.106750         0.202223
 C        -1.212639         1.971416         0.118841
 O        -2.721843        -0.259376        -0.456015
 C        -1.758178        -0.549902         0.494739
 H         0.636551        -0.297723        -0.271193
 H        -1.007988        -0.073216         2.979970
 H        -1.335223         1.742573         2.804945
 H        -3.102329        -0.758756         2.272127
 H        -4.384648         0.588427         0.512454
 H        -3.031734         2.184472        -0.812650
 H        -3.066575         2.902518         0.887646
 H        -0.877612         2.004611        -0.905838
 H        -0.819927         2.799304         0.785471
 H        -1.222095        -1.411629         0.257376
