19
Iteration:  4408
 O         0.650049         0.261304         0.683031
 C        -0.783932         0.629080         0.749888
 C        -1.290066         0.633864         2.193187
 C        -2.569174         0.032925         1.660561
 C        -3.363609         0.692913         0.498741
 C        -2.732604         2.160910         0.301919
 C        -1.185831         1.932560         0.015650
 O        -2.781012        -0.258790        -0.463271
 C        -1.797611        -0.618480         0.519291
 H         1.091922         0.944140         0.274714
 H        -0.531544        -0.013282         2.586347
 H        -1.159525         1.677984         2.492869
 H        -3.119722        -0.720846         2.272210
 H        -4.432445         0.709977         0.623331
 H        -3.291094         2.504908        -0.579278
 H        -3.009213         2.688389         1.185198
 H        -1.016251         1.817403        -1.031624
 H        -0.703597         2.796008         0.369732
 H        -1.435113        -1.698432         0.460340
