19
Iteration:  2133charge 0 multiplicity 1
 O         0.572390         0.290034         0.454577
 C        -0.824542         0.639629         0.821677
 C        -1.305113         0.685553         2.303823
 C        -2.553267        -0.005388         1.729944
 C        -3.237907         0.730101         0.532310
 C        -2.736505         2.091146         0.228223
 C        -1.265575         1.869843         0.011968
 O        -2.729492        -0.282333        -0.492485
 C        -1.768295        -0.548432         0.584798
 H         1.069724         1.014615         0.690663
 H        -0.741920        -0.071937         2.945873
 H        -1.261098         1.667779         2.738188
 H        -3.304873        -0.567509         2.401674
 H        -4.369968         0.719962         0.493264
 H        -3.223800         2.579936        -0.595328
 H        -2.795258         2.648688         1.156220
 H        -1.043652         1.518764        -1.072170
 H        -0.593803         2.716776         0.168933
 H        -1.303882        -1.587436         0.557467
