19
Iteration:  1513
 O         0.673450         0.287022         0.731306
 C        -0.718774         0.633927         0.721214
 C        -1.359381         0.692440         2.199395
 C        -2.506585        -0.130467         1.708030
 C        -3.380985         0.769397         0.571902
 C        -2.679966         2.067925         0.338447
 C        -1.211420         1.839786        -0.135470
 O        -2.861791        -0.176769        -0.488021
 C        -1.751160        -0.524596         0.418056
 H         1.057859         0.527166         1.526525
 H        -0.713528         0.089629         2.866004
 H        -1.632460         1.675087         2.679746
 H        -3.219821        -0.737161         2.186732
 H        -4.483074         0.690410         0.737321
 H        -3.246776         2.852792        -0.276553
 H        -2.729895         2.610479         1.275420
 H        -1.222895         1.615453        -1.217882
 H        -0.496298         2.568796        -0.071117
 H        -1.374009        -1.521938        -0.023690
