19
Iteration:  2237charge 0 multiplicity 1
 O         0.674273         0.447547         0.630223
 C        -0.716444         0.572065         0.846199
 C        -1.361156         0.716773         2.241404
 C        -2.564011        -0.094420         1.742260
 C        -3.333201         0.696359         0.576069
 C        -2.674774         2.036681         0.316656
 C        -1.231356         1.683438        -0.111238
 O        -2.836867        -0.102154        -0.501165
 C        -1.744454        -0.574678         0.494279
 H         0.757833         0.809030        -0.342284
 H        -0.753519         0.249010         2.975907
 H        -1.568897         1.740134         2.654926
 H        -3.082404        -0.836400         2.269867
 H        -4.395982         0.746264         0.515415
 H        -3.212182         2.823915        -0.404498
 H        -2.700440         2.644015         1.319368
 H        -1.227960         1.227107        -1.088755
 H        -0.485065         2.535348         0.035040
 H        -1.596901        -1.580049         0.175863
