19
Iteration:  4763charge 0 multiplicity 1
 O         0.642065         0.405387         0.723947
 C        -0.711323         0.612248         0.825658
 C        -1.276621         0.624354         2.250987
 C        -2.647876         0.021427         1.662029
 C        -3.335849         0.701838         0.484133
 C        -2.650546         2.066690         0.335249
 C        -1.237136         1.752697        -0.003698
 O        -2.825250        -0.150690        -0.543320
 C        -1.755774        -0.525798         0.451490
 H         0.789066         0.021958        -0.243827
 H        -0.850852        -0.149385         2.972236
 H        -1.406262         1.597641         2.785679
 H        -3.083029        -0.836308         2.224816
 H        -4.449713         0.669803         0.508877
 H        -3.227996         2.689093        -0.365966
 H        -2.693166         2.624110         1.321342
 H        -1.092391         1.459803        -1.121731
 H        -0.547657         2.677119         0.180001
 H        -1.499068        -1.544422         0.219847
