19
Iteration:  3464charge 0 multiplicity 1
 O         0.559352         0.333573         0.476355
 C        -0.779835         0.586546         0.854537
 C        -1.315054         0.604499         2.316953
 C        -2.550222        -0.128057         1.723882
 C        -3.346654         0.751998         0.566206
 C        -2.689946         2.191332         0.142731
 C        -1.151797         1.907234         0.065113
 O        -2.761994        -0.270988        -0.441849
 C        -1.793822        -0.568926         0.509800
 H         0.972137         1.272001         0.521864
 H        -0.632428        -0.032995         2.912267
 H        -1.567904         1.503383         2.894527
 H        -3.209176        -0.643842         2.409536
 H        -4.414857         0.773433         0.319125
 H        -3.074369         2.452137        -0.883382
 H        -2.795352         2.929113         0.918287
 H        -1.138657         1.743397        -1.029881
 H        -0.453773         2.691211         0.402578
 H        -1.292413        -1.515351         0.269838
