19
Iteration:  1610
 O         0.618127         0.271705         0.546740
 C        -0.733206         0.586487         0.757093
 C        -1.262730         0.602470         2.236649
 C        -2.610677         0.034984         1.675761
 C        -3.365322         0.766465         0.511789
 C        -2.752801         2.106231         0.178533
 C        -1.194435         1.890829         0.128935
 O        -2.730476        -0.224292        -0.442766
 C        -1.778679        -0.626022         0.550685
 H         0.984384         1.173931         0.282581
 H        -0.953827        -0.241259         2.888997
 H        -1.209609         1.560252         2.822352
 H        -3.166664        -0.542317         2.363066
 H        -4.456549         0.649352         0.566645
 H        -3.183157         2.542493        -0.773715
 H        -3.178414         2.806379         0.875355
 H        -0.861848         2.159585        -0.919933
 H        -0.785070         2.766022         0.684197
 H        -1.388960        -1.661531         0.508111
