19
Iteration:  3222
 O         0.598937         0.355632         0.599543
 C        -0.782525         0.666915         0.773243
 C        -1.364799         0.638695         2.291434
 C        -2.572490        -0.091683         1.684952
 C        -3.313221         0.699720         0.543163
 C        -2.620581         2.083424         0.348644
 C        -1.196327         1.811209        -0.104935
 O        -2.812884        -0.170042        -0.486759
 C        -1.770069        -0.578049         0.471111
 H         1.166928         0.857072         1.300291
 H        -0.702612        -0.040500         2.836647
 H        -1.517404         1.470222         2.960809
 H        -3.208649        -0.816083         2.350464
 H        -4.417880         0.843652         0.640199
 H        -3.176490         2.508299        -0.555237
 H        -2.461947         2.845923         1.112555
 H        -1.105720         1.666699        -1.209374
 H        -0.624953         2.834792        -0.084185
 H        -1.465792        -1.586970         0.184994
