19
Iteration:   148charge 0 multiplicity 1
 O         0.626047         0.360279         0.636545
 C        -0.737219         0.576159         0.767330
 C        -1.286855         0.666724         2.222325
 C        -2.580489         0.050878         1.680131
 C        -3.340499         0.733802         0.499895
 C        -2.719899         2.091009         0.248630
 C        -1.190638         1.867743         0.073415
 O        -2.800357        -0.288716        -0.477878
 C        -1.803472        -0.615694         0.548221
 H         0.968771         0.775622        -0.192838
 H        -0.818399        -0.134164         2.749924
 H        -1.302176         1.626236         2.725411
 H        -3.222740        -0.407018         2.468285
 H        -4.448289         0.632650         0.536499
 H        -3.120079         2.510442        -0.747506
 H        -2.982067         2.803783         0.996348
 H        -0.891130         1.838266        -1.044299
 H        -0.476537         2.671468         0.469828
 H        -1.385603        -1.597070         0.461850
