19
Iteration:  4756charge 0 multiplicity 1
 O         0.661597         0.348846         0.707754
 C        -0.789394         0.645461         0.805965
 C        -1.281673         0.644508         2.260850
 C        -2.600908        -0.004014         1.652666
 C        -3.370369         0.743983         0.514780
 C        -2.750698         2.081493         0.324002
 C        -1.207361         1.757743        -0.017903
 O        -2.740449        -0.140515        -0.552712
 C        -1.793448        -0.562257         0.488436
 H         0.988959         0.029530        -0.219708
 H        -0.797660        -0.189075         2.833227
 H        -1.280193         1.547270         2.899451
 H        -3.134586        -0.718675         2.283332
 H        -4.451525         0.622586         0.438431
 H        -3.217669         2.749708        -0.422858
 H        -2.510907         2.580320         1.293507
 H        -1.095577         1.570322        -0.998475
 H        -0.714829         2.668889         0.258597
 H        -1.373463        -1.552548         0.248430
