19
Iteration:  1730
 O         0.556110         0.247941         0.439036
 C        -0.755782         0.671435         0.799039
 C        -1.326320         0.591075         2.286313
 C        -2.561400        -0.096524         1.696546
 C        -3.271188         0.706512         0.554751
 C        -2.705146         2.089662         0.083956
 C        -1.173923         2.007449         0.166350
 O        -2.810791        -0.228474        -0.433276
 C        -1.786416        -0.547005         0.542277
 H         1.166507         0.852549         0.809272
 H        -0.779808        -0.184909         2.921097
 H        -1.476766         1.584536         2.858663
 H        -3.275683        -0.716224         2.238659
 H        -4.355387         0.647858         0.695082
 H        -3.011545         2.383638        -1.006621
 H        -3.073715         2.896207         0.748788
 H        -0.602837         2.118687        -0.861323
 H        -0.734613         2.845190         0.901627
 H        -1.198808        -1.499823         0.481498
