19
Iteration:   343charge 0 multiplicity 1
 O         0.617003         0.398299         0.694076
 C        -0.766297         0.606025         0.736370
 C        -1.374848         0.723753         2.135268
 C        -2.557894        -0.063166         1.631832
 C        -3.362879         0.719986         0.572557
 C        -2.591434         2.172423         0.369206
 C        -1.220206         1.812175        -0.125870
 O        -2.827448        -0.292831        -0.459476
 C        -1.720718        -0.610486         0.496360
 H         1.024316         0.421619         1.483699
 H        -0.954001         0.179856         2.910334
 H        -1.359189         1.685151         2.557691
 H        -3.121069        -0.747982         2.366664
 H        -4.497138         0.694559         0.626031
 H        -3.047839         2.953184        -0.370878
 H        -2.608643         2.713602         1.288932
 H        -1.502499         1.409117        -1.135927
 H        -0.527578         2.519685        -0.168425
 H        -1.283147        -1.528659         0.331965
