19
Iteration:  2798
 O         0.653715         0.439233         0.565586
 C        -0.724175         0.561878         0.763240
 C        -1.320829         0.610176         2.222616
 C        -2.579977        -0.036615         1.654881
 C        -3.315022         0.779135         0.584894
 C        -2.674938         2.074117         0.322745
 C        -1.241370         1.786954        -0.028891
 O        -2.763734        -0.227476        -0.478573
 C        -1.877508        -0.615500         0.481837
 H         1.116348         1.186639         1.030250
 H        -0.670451         0.062759         3.018296
 H        -1.448899         1.648898         2.744198
 H        -3.250658        -0.511651         2.358247
 H        -4.423526         0.669140         0.631132
 H        -3.238502         2.596396        -0.532127
 H        -2.621478         2.709235         1.263244
 H        -1.184476         1.636582        -1.154005
 H        -0.450819         2.683978         0.106933
 H        -1.635626        -1.679051         0.554995
