19
Iteration:   579charge 0 multiplicity 1
 O         0.612722         0.276633         0.541513
 C        -0.747848         0.609904         0.785269
 C        -1.333938         0.679671         2.292820
 C        -2.616341         0.078382         1.697411
 C        -3.322461         0.724046         0.454269
 C        -2.733654         2.117860         0.162194
 C        -1.246027         1.943149         0.061643
 O        -2.674632        -0.316804        -0.444258
 C        -1.760581        -0.540704         0.628256
 H         0.699417        -0.310704        -0.326002
 H        -0.994730        -0.239570         2.958715
 H        -1.207519         1.645490         2.910794
 H        -3.134210        -0.560757         2.355104
 H        -4.439125         0.643842         0.330806
 H        -3.218894         2.516452        -0.711531
 H        -3.095811         2.760568         1.138164
 H        -0.927586         1.961940        -0.973961
 H        -0.734675         2.804276         0.581616
 H        -1.196497        -1.607680         0.635155
