19
Iteration:  1191charge 0 multiplicity 1
 O         0.591587         0.179143         0.619121
 C        -0.702346         0.687190         0.799069
 C        -1.340039         0.754948         2.240634
 C        -2.521503        -0.094558         1.703682
 C        -3.352077         0.695558         0.556932
 C        -2.700011         2.061186         0.228687
 C        -1.224208         1.899700        -0.029585
 O        -2.821442        -0.220272        -0.441513
 C        -1.725318        -0.500758         0.496994
 H         1.117607         0.877429         0.305958
 H        -0.947853         0.142386         3.032520
 H        -1.518486         1.660820         2.752486
 H        -3.096824        -0.977529         2.244284
 H        -4.461156         0.643329         0.555842
 H        -3.201842         2.611573        -0.648703
 H        -2.933631         2.838161         1.016440
 H        -1.100177         1.693474        -1.075895
 H        -0.670781         2.854566         0.198842
 H        -1.098430        -1.415796         0.259854
