19
Iteration:  3275charge 0 multiplicity 1
 O         0.639271         0.224932         0.603425
 C        -0.773546         0.589165         0.767682
 C        -1.314069         0.654696         2.224232
 C        -2.543778         0.000847         1.715716
 C        -3.316760         0.696019         0.531707
 C        -2.818051         2.090377         0.248616
 C        -1.180232         1.891778         0.078739
 O        -2.769124        -0.177641        -0.497605
 C        -1.810319        -0.546678         0.456587
 H         1.309074         1.017185         0.746975
 H        -0.676972         0.102520         2.890352
 H        -1.104723         1.649163         2.700082
 H        -3.222396        -0.662735         2.404354
 H        -4.386521         0.569188         0.617186
 H        -3.373862         2.415494        -0.664325
 H        -2.695440         2.760264         1.077792
 H        -1.001905         1.847661        -1.000252
 H        -0.727200         2.861932         0.471620
 H        -1.339998        -1.521703         0.217228
