19
Iteration:   819charge 0 multiplicity 1
 O         0.625537         0.296271         0.551184
 C        -0.787890         0.625021         0.822089
 C        -1.279915         0.587818         2.280370
 C        -2.616665         0.038079         1.745045
 C        -3.312737         0.702304         0.460948
 C        -2.718361         2.152041         0.242267
 C        -1.267261         1.821610        -0.043272
 O        -2.729680        -0.283786        -0.456813
 C        -1.771033        -0.502642         0.573800
 H         1.108433         1.198632         0.556571
 H        -0.886448        -0.210629         2.959894
 H        -1.179158         1.575428         2.754512
 H        -3.193655        -0.512914         2.380196
 H        -4.473904         0.710473         0.364046
 H        -3.158217         2.558515        -0.759015
 H        -2.870901         2.835279         1.140376
 H        -1.179567         1.458890        -1.126761
 H        -0.705264         2.874287         0.090134
 H        -1.123837        -1.468792         0.592044
