19
Iteration:   821charge 0 multiplicity 1
 O         0.597057         0.286752         0.532539
 C        -0.781485         0.641808         0.822996
 C        -1.291724         0.580561         2.290804
 C        -2.613790         0.025322         1.745502
 C        -3.313908         0.705363         0.460695
 C        -2.723775         2.146712         0.229618
 C        -1.260127         1.828730        -0.029401
 O        -2.721072        -0.286652        -0.452186
 C        -1.771728        -0.505384         0.571764
 H         1.131391         1.205439         0.554918
 H        -0.857417        -0.162207         3.004300
 H        -1.167942         1.628943         2.731531
 H        -3.182294        -0.521105         2.401391
 H        -4.421269         0.710449         0.377755
 H        -3.033132         2.508591        -0.690649
 H        -2.905084         2.874410         1.064230
 H        -1.140484         1.555056        -1.091802
 H        -0.660756         2.876536         0.085628
 H        -1.078219        -1.447022         0.609321
