19
Iteration:  4884charge 0 multiplicity 1
 O         0.605894         0.381027         0.680037
 C        -0.748526         0.545175         0.776371
 C        -1.275704         0.693871         2.281366
 C        -2.575626         0.002612         1.628113
 C        -3.324266         0.725234         0.478168
 C        -2.716332         2.129456         0.313698
 C        -1.189152         1.807916         0.047560
 O        -2.799576        -0.234892        -0.514693
 C        -1.766499        -0.601612         0.464893
 H         1.012017         0.215198        -0.120459
 H        -0.723824        -0.010213         2.951948
 H        -1.386010         1.707687         2.619963
 H        -3.305221        -0.526811         2.214436
 H        -4.418832         0.712241         0.492516
 H        -3.145433         2.868162        -0.347661
 H        -2.937176         2.548926         1.296697
 H        -1.170261         1.792663        -1.087207
 H        -0.578707         2.660447         0.527943
 H        -1.467649        -1.621883         0.362526
