19
Iteration:  4945charge 0 multiplicity 1
 O         0.592597         0.389539         0.731099
 C        -0.729988         0.655464         0.793979
 C        -1.290276         0.661486         2.226768
 C        -2.585541        -0.212672         1.696084
 C        -3.283606         0.764726         0.579798
 C        -2.649625         2.119171         0.218281
 C        -1.129107         1.900758         0.052227
 O        -2.888855        -0.214479        -0.529909
 C        -1.836236        -0.645982         0.409596
 H         0.923453         0.677383        -0.171562
 H        -0.604780         0.147123         2.907958
 H        -1.478381         1.692405         2.670779
 H        -3.260796        -0.626714         2.521360
 H        -4.403214         0.797125         0.731537
 H        -3.056685         2.559378        -0.742190
 H        -2.863499         2.739206         1.140156
 H        -0.974087         1.614118        -0.984035
 H        -0.503459         2.697037         0.292867
 H        -1.364426        -1.698376         0.134933
