19
Iteration:  4800
 O         0.641465         0.388609         0.809911
 C        -0.703043         0.565796         0.785324
 C        -1.334661         0.591640         2.156407
 C        -2.550838        -0.122515         1.691935
 C        -3.324977         0.688320         0.590476
 C        -2.651934         2.144675         0.217621
 C        -1.163571         1.950108        -0.074188
 O        -2.887989        -0.187532        -0.461201
 C        -1.839076        -0.628690         0.395991
 H         1.015377         0.663863        -0.150317
 H        -0.674610        -0.052382         2.771199
 H        -1.375190         1.572624         2.702072
 H        -3.234187        -0.690992         2.295695
 H        -4.398401         0.854090         0.659214
 H        -3.155508         2.627114        -0.638125
 H        -2.762761         2.793602         1.139520
 H        -0.756845         2.088575        -1.009953
 H        -0.685013         2.665520         0.573868
 H        -1.588869        -1.697397         0.357117
