19
Iteration:   589charge 0 multiplicity 1
 O         0.549364         0.358114         0.564363
 C        -0.775902         0.640180         0.813857
 C        -1.340261         0.674094         2.280552
 C        -2.616328         0.012686         1.690661
 C        -3.276788         0.734556         0.438427
 C        -2.675347         2.088132         0.226454
 C        -1.187986         1.877375         0.021160
 O        -2.716048        -0.356658        -0.431300
 C        -1.739340        -0.500599         0.588621
 H         0.395567        -0.135001        -0.353973
 H        -0.702159        -0.134592         2.892672
 H        -1.463799         1.671723         2.847048
 H        -3.326180        -0.552209         2.194014
 H        -4.431164         0.788664         0.472820
 H        -3.044169         2.591412        -0.642392
 H        -2.885009         2.861129         1.152388
 H        -1.000420         1.773976        -1.079404
 H        -0.564544         2.745564         0.440870
 H        -1.338906        -1.634179         0.670145
