19
Iteration:  3158
 O         0.538693         0.243326         0.525293
 C        -0.734811         0.630541         0.799142
 C        -1.356487         0.628688         2.232493
 C        -2.586262        -0.008852         1.683215
 C        -3.366427         0.683483         0.537352
 C        -2.692322         2.145419         0.241335
 C        -1.121343         1.966811         0.113185
 O        -2.788033        -0.301510        -0.452300
 C        -1.741993        -0.540002         0.493030
 H         1.156207         1.083502         0.365753
 H        -0.733690         0.079777         2.932225
 H        -1.364115         1.606292         2.697186
 H        -3.275117        -0.608817         2.283935
 H        -4.482467         0.474853         0.344781
 H        -3.042581         2.505577        -0.774245
 H        -2.911040         2.917815         0.995487
 H        -0.701152         1.808075        -0.887122
 H        -0.707012         2.728002         0.728635
 H        -1.134437        -1.429578         0.384182
