19
Iteration:  2163
 O         0.639537         0.269469         0.335696
 C        -0.761990         0.599147         0.814883
 C        -1.368650         0.672665         2.258180
 C        -2.586872        -0.029394         1.733041
 C        -3.304488         0.691900         0.565811
 C        -2.755645         2.053867         0.096219
 C        -1.178840         1.922056         0.197034
 O        -2.792314        -0.210872        -0.408565
 C        -1.744050        -0.546780         0.591745
 H         1.179827         1.143744         0.548319
 H        -0.901985         0.099076         3.073037
 H        -1.279032         1.718947         2.702688
 H        -3.223604        -0.622363         2.467040
 H        -4.409235         0.668598         0.566004
 H        -3.004638         2.121984        -0.917361
 H        -3.090676         2.907091         0.673193
 H        -0.843280         1.774310        -0.809896
 H        -0.633870         2.758214         0.674630
 H        -1.319478        -1.558265         0.535755
