19
Iteration:  3647charge 0 multiplicity 1
 O         0.567889         0.269510         0.544814
 C        -0.782758         0.678328         0.836554
 C        -1.429439         0.711352         2.262254
 C        -2.532266        -0.126884         1.692885
 C        -3.323921         0.769326         0.593909
 C        -2.701161         2.061716         0.324337
 C        -1.203992         1.791844        -0.125135
 O        -2.750482        -0.191381        -0.466075
 C        -1.689302        -0.551686         0.470822
 H         1.094706         0.880774         0.934131
 H        -0.855059         0.062384         2.912004
 H        -1.629497         1.700041         2.755648
 H        -2.900172        -0.830391         2.527556
 H        -4.383887         1.013376         0.536656
 H        -3.165364         2.587716        -0.518737
 H        -2.715020         2.763697         1.166890
 H        -1.063042         1.752803        -1.195411
 H        -0.538712         2.682809        -0.031744
 H        -1.345831        -1.560794         0.418436
