19
Iteration:  1586
 O         0.600718         0.327004         0.385353
 C        -0.788427         0.630632         0.857787
 C        -1.294802         0.641936         2.342035
 C        -2.599171         0.009805         1.710460
 C        -3.260573         0.756859         0.406153
 C        -2.694294         2.092638         0.184404
 C        -1.106785         1.880256         0.262079
 O        -2.809300        -0.336357        -0.485575
 C        -1.836057        -0.567406         0.544328
 H         0.825161         1.175666         0.203642
 H        -0.881024        -0.093923         3.004498
 H        -1.371533         1.556247         2.818557
 H        -3.273589        -0.581867         2.324527
 H        -4.334564         0.717002         0.378694
 H        -3.169531         2.512890        -0.726201
 H        -3.250986         2.733164         0.908125
 H        -0.724235         1.811191        -0.797747
 H        -0.513289         2.808163         0.672001
 H        -1.381596        -1.516883         0.561690
