19
Iteration:  2304charge 0 multiplicity 1
 O         0.630824         0.254674         0.620232
 C        -0.730465         0.666077         0.764455
 C        -1.296181         0.711605         2.193086
 C        -2.508473        -0.095835         1.703521
 C        -3.347188         0.666219         0.623310
 C        -2.769087         2.083181         0.139514
 C        -1.162560         1.980778         0.148260
 O        -2.896037        -0.280025        -0.425557
 C        -1.734209        -0.471977         0.421880
 H         0.820409         0.345159        -0.275901
 H        -0.717438         0.131280         2.919588
 H        -1.359648         1.686742         2.711881
 H        -2.873916        -0.892492         2.385914
 H        -4.412156         0.726561         0.773177
 H        -3.174833         1.881041        -0.940786
 H        -3.237323         3.042051         0.616529
 H        -0.847630         2.050511        -0.893131
 H        -0.469346         2.727489         0.716388
 H        -1.285053        -1.458690         0.385502
