19
Iteration:  2753charge 0 multiplicity 1
 O         0.567652         0.171137         0.563037
 C        -0.717352         0.737913         0.803682
 C        -1.310604         0.677736         2.229923
 C        -2.540143        -0.087971         1.678860
 C        -3.293998         0.719988         0.619927
 C        -2.763841         2.032136         0.196812
 C        -1.196934         2.018390         0.039425
 O        -2.822895        -0.250945        -0.462636
 C        -1.739663        -0.568353         0.476006
 H         1.179411         0.928298         0.673146
 H        -0.781366         0.040809         3.014942
 H        -1.326386         1.660086         2.815816
 H        -3.144782        -0.820073         2.106986
 H        -4.371220         0.959421         0.784496
 H        -3.298289         2.245687        -0.829079
 H        -3.114675         2.821196         0.935199
 H        -0.761550         1.873256        -0.989490
 H        -0.708190         3.034036         0.440702
 H        -1.216862        -1.517006         0.339822
