19
Iteration:  3794charge 0 multiplicity 1
 O         0.621450         0.375710         0.668394
 C        -0.778199         0.601878         0.767297
 C        -1.377465         0.729917         2.227814
 C        -2.608582        -0.089224         1.663059
 C        -3.304820         0.718381         0.508516
 C        -2.610290         2.188495         0.364215
 C        -1.251863         1.799124        -0.022438
 O        -2.773206        -0.229680        -0.430125
 C        -1.730359        -0.656351         0.456067
 H         0.832652         0.591567        -0.358661
 H        -0.664198         0.045391         2.801154
 H        -1.517953         1.768374         2.609785
 H        -3.385409        -0.589921         2.164404
 H        -4.368323         0.864687         0.490698
 H        -3.057662         2.698669        -0.529189
 H        -2.744964         2.568884         1.363138
 H        -1.225792         1.662667        -1.120077
 H        -0.484115         2.572954         0.094485
 H        -1.390654        -1.710858         0.542901
