19
Iteration:  2831
 O         0.567401         0.260394         0.560383
 C        -0.708892         0.710342         0.825706
 C        -1.336731         0.684519         2.258270
 C        -2.540870        -0.091981         1.655026
 C        -3.323398         0.708218         0.538933
 C        -2.690038         2.032617         0.322311
 C        -1.221117         1.867988        -0.033471
 O        -2.784186        -0.218851        -0.446424
 C        -1.768531        -0.523323         0.433195
 H         1.136310         0.938692         0.824094
 H        -0.681090         0.098166         3.010498
 H        -1.488893         1.756407         2.688224
 H        -3.263756        -0.632164         2.249043
 H        -4.428849         0.810448         0.585442
 H        -3.290619         2.648472        -0.426691
 H        -2.780511         2.664851         1.243895
 H        -1.172203         1.429958        -1.078422
 H        -0.491883         2.810068         0.134323
 H        -1.370624        -1.539776         0.379158
