19
Iteration:  4494charge 0 multiplicity 1
 O         0.663627         0.203457         0.772848
 C        -0.727074         0.645555         0.746487
 C        -1.288998         0.709996         2.207332
 C        -2.540238        -0.004890         1.642394
 C        -3.375177         0.723840         0.536224
 C        -2.768861         2.056135         0.316182
 C        -1.304300         1.915763         0.045637
 O        -2.798682        -0.196757        -0.559106
 C        -1.722260        -0.512992         0.467566
 H         0.995185        -0.108689        -0.190526
 H        -0.581157         0.077190         2.812980
 H        -1.323046         1.754620         2.687641
 H        -2.866928        -0.755777         2.388569
 H        -4.478572         0.661731         0.573325
 H        -3.091866         2.729782        -0.476170
 H        -2.860931         2.655723         1.226041
 H        -1.229258         1.529983        -1.044580
 H        -0.719007         2.841125         0.099767
 H        -1.337432        -1.575657         0.403187
