19
Iteration:  4040
 O         0.610294         0.253415         0.583987
 C        -0.741169         0.572344         0.808574
 C        -1.380898         0.730496         2.253952
 C        -2.585100        -0.012709         1.703834
 C        -3.375610         0.686538         0.557839
 C        -2.724197         2.065407         0.259030
 C        -1.119100         1.889771         0.038849
 O        -2.777852        -0.243455        -0.454478
 C        -1.729490        -0.505003         0.442962
 H         0.830407         0.640500        -0.242103
 H        -0.711450         0.226722         2.946910
 H        -1.540099         1.724788         2.790461
 H        -3.198070        -0.758606         2.287369
 H        -4.510522         0.761697         0.421201
 H        -3.222669         2.709450        -0.431978
 H        -2.673036         2.749411         1.195175
 H        -0.954861         1.726075        -1.035852
 H        -0.577590         2.693008         0.443561
 H        -1.269343        -1.444946         0.212615
