19
Iteration:  1695charge 0 multiplicity 1
 O         0.654704         0.345324         0.565291
 C        -0.752542         0.571922         0.782747
 C        -1.245126         0.605924         2.210503
 C        -2.572809         0.023434         1.680710
 C        -3.322116         0.715578         0.501670
 C        -2.778370         2.117754         0.230363
 C        -1.256579         1.775371         0.052681
 O        -2.795923        -0.167671        -0.478992
 C        -1.777663        -0.560430         0.517802
 H         1.214053         0.818000         1.197302
 H        -0.837251        -0.197550         2.873018
 H        -1.194806         1.657950         2.887080
 H        -3.307649        -0.532180         2.211424
 H        -4.373436         0.547795         0.659543
 H        -3.088687         2.786613        -0.625103
 H        -2.863443         2.630662         1.226960
 H        -1.033517         1.649582        -1.045712
 H        -0.654958         2.698983         0.462722
 H        -1.514104        -1.580982         0.481361
