19
Iteration:  4069charge 0 multiplicity 1
 O         0.688735         0.368630         0.730410
 C        -0.722948         0.540496         0.737210
 C        -1.266822         0.585884         2.186839
 C        -2.535857        -0.003396         1.698705
 C        -3.313568         0.753476         0.602464
 C        -2.732214         2.081798         0.210509
 C        -1.167735         1.926344        -0.005901
 O        -2.887319        -0.270449        -0.475826
 C        -1.879180        -0.587493         0.461144
 H         1.035432         1.107036         0.317235
 H        -0.573646        -0.029451         2.765062
 H        -1.425931         1.560156         2.730248
 H        -3.171793        -0.713494         2.294643
 H        -4.371475         0.795708         0.503708
 H        -3.287116         2.746405        -0.510501
 H        -2.908514         2.840719         0.959923
 H        -0.925479         1.739265        -1.098439
 H        -0.464937         2.818461         0.343753
 H        -1.685046        -1.691098         0.370608
