19
Iteration:   509charge 0 multiplicity 1
 O         0.653093         0.435861         0.776181
 C        -0.743208         0.729177         0.756456
 C        -1.341576         0.643671         2.276715
 C        -2.564942        -0.099584         1.700130
 C        -3.292423         0.747467         0.521587
 C        -2.550754         2.095887         0.239813
 C        -1.132266         1.875808        -0.128268
 O        -2.974775        -0.349061        -0.436529
 C        -1.844765        -0.632050         0.457652
 H         1.067491         0.937412        -0.028224
 H        -0.763929        -0.036823         2.883767
 H        -1.526872         1.552538         2.847219
 H        -3.194262        -0.791354         2.318457
 H        -4.402104         1.001604         0.512100
 H        -3.141527         2.672105        -0.568906
 H        -2.531213         2.726926         1.114971
 H        -1.084288         1.339029        -1.191240
 H        -0.576402         2.804495        -0.145976
 H        -1.439658        -1.605489         0.380754
