19
Iteration:  4208charge 0 multiplicity 1
 O         0.627573         0.468199         0.697645
 C        -0.812955         0.587028         0.756197
 C        -1.335228         0.605970         2.241022
 C        -2.514435        -0.145563         1.737993
 C        -3.293021         0.762352         0.579998
 C        -2.639520         2.064088         0.202711
 C        -1.141569         1.818889        -0.032049
 O        -2.841451        -0.153085        -0.461904
 C        -1.838722        -0.585798         0.489043
 H         0.875680         0.624382        -0.292984
 H        -0.705169        -0.088293         2.893670
 H        -1.463147         1.511710         2.879705
 H        -3.276172        -0.769153         2.176304
 H        -4.388885         0.646576         0.756895
 H        -3.129501         2.531156        -0.687461
 H        -2.901520         2.745493         1.029819
 H        -0.934184         1.676382        -1.128786
 H        -0.621324         2.691314         0.288536
 H        -1.502410        -1.573590         0.059331
