19
Iteration:   236
 O         0.701157         0.267219         0.580609
 C        -0.739796         0.561264         0.812051
 C        -1.287568         0.747950         2.222987
 C        -2.571717         0.062010         1.658203
 C        -3.328473         0.696375         0.487191
 C        -2.769043         2.103488         0.214656
 C        -1.242433         1.912656         0.133554
 O        -2.791452        -0.288181        -0.456015
 C        -1.767245        -0.600682         0.558900
 H         0.889552         0.510411        -0.288166
 H        -0.887800         0.085672         2.998649
 H        -1.461239         1.805834         2.477684
 H        -3.243516        -0.514167         2.333435
 H        -4.467787         0.616572         0.449946
 H        -3.174962         2.562850        -0.757289
 H        -2.985312         2.717195         1.030102
 H        -0.951124         1.864011        -0.969308
 H        -0.657765         2.850395         0.565469
 H        -1.509424        -1.649721         0.556709
