19
Iteration:  3923
 O         0.607575         0.258486         0.674083
 C        -0.762169         0.614912         0.766813
 C        -1.307692         0.656508         2.164656
 C        -2.580218         0.008682         1.721724
 C        -3.351779         0.708955         0.577256
 C        -2.692847         2.106057         0.265333
 C        -1.211135         1.849888        -0.027741
 O        -2.752792        -0.170147        -0.492725
 C        -1.786055        -0.582436         0.486202
 H         1.095617         1.071741         0.447191
 H        -0.654094        -0.004690         2.790583
 H        -1.368306         1.495393         2.803603
 H        -3.140335        -0.473886         2.483139
 H        -4.348616         0.353148         0.665104
 H        -3.381697         2.511686        -0.511017
 H        -2.835760         2.806555         1.067446
 H        -1.193554         1.504296        -1.108709
 H        -0.665031         2.807335         0.220386
 H        -1.257146        -1.521691         0.226876
