19
Iteration:  4163
 O         0.708444         0.273082         0.672404
 C        -0.756175         0.617063         0.811652
 C        -1.215455         0.719871         2.270713
 C        -2.561103         0.010359         1.700467
 C        -3.347340         0.694825         0.479218
 C        -2.785557         2.086600         0.250701
 C        -1.252572         1.906817         0.093833
 O        -2.849620        -0.246995        -0.546991
 C        -1.733518        -0.536928         0.399373
 H         0.797679        -0.284560        -0.214966
 H        -0.665165        -0.056315         2.919772
 H        -1.362163         1.675171         2.824775
 H        -3.079633        -0.585601         2.421403
 H        -4.488347         0.764787         0.464347
 H        -3.467131         2.696549        -0.344357
 H        -2.889510         2.707430         1.167943
 H        -0.981379         1.908828        -0.987488
 H        -0.762126         2.684470         0.572072
 H        -1.394029        -1.593783         0.532898
