19
Iteration:   799charge 0 multiplicity 1
 O         0.691126         0.399728         0.722111
 C        -0.661045         0.631692         0.759262
 C        -1.314332         0.690482         2.220853
 C        -2.568280         0.025984         1.645284
 C        -3.373495         0.744135         0.531568
 C        -2.758292         2.065482         0.301951
 C        -1.228221         1.719954        -0.136097
 O        -2.813599        -0.208765        -0.456799
 C        -1.850572        -0.665147         0.500470
 H         1.170119         1.150877         0.519425
 H        -0.685247        -0.056975         2.775876
 H        -1.205235         1.639821         2.871432
 H        -3.167081        -0.484992         2.294597
 H        -4.489738         0.754547         0.664536
 H        -3.106214         2.727010        -0.378201
 H        -2.701088         2.534291         1.302274
 H        -1.192338         1.566067        -1.221126
 H        -0.469309         2.668834        -0.045200
 H        -1.520965        -1.791334         0.528785
