19
Iteration:  3134charge 0 multiplicity 1
 O         0.593418         0.371708         0.501754
 C        -0.735576         0.569883         0.839766
 C        -1.363715         0.561779         2.332542
 C        -2.574816        -0.047891         1.721237
 C        -3.230901         0.811632         0.462283
 C        -2.687438         2.103178         0.191242
 C        -1.179641         1.889317         0.044736
 O        -2.804459        -0.240763        -0.497526
 C        -1.821905        -0.593528         0.575051
 H         0.965587         1.254043         0.420484
 H        -0.680799         0.038883         2.965250
 H        -1.400588         1.491846         2.872998
 H        -3.403864        -0.742874         2.199494
 H        -4.360775         0.790103         0.611384
 H        -3.254344         2.540263        -0.704940
 H        -2.867065         2.697686         1.062851
 H        -0.907094         1.432910        -0.915153
 H        -0.600607         2.788752         0.390146
 H        -1.361157        -1.605369         0.460217
