19
Iteration:  2671charge 0 multiplicity 1
 O         0.593555         0.376256         0.670423
 C        -0.780480         0.652706         0.754108
 C        -1.291036         0.629849         2.252027
 C        -2.570799        -0.027139         1.695633
 C        -3.284685         0.697820         0.564453
 C        -2.666822         2.103885         0.283652
 C        -1.253324         1.779267        -0.113977
 O        -2.860977        -0.182128        -0.448563
 C        -1.719587        -0.603554         0.495595
 H         1.035907         1.172185         0.599089
 H        -0.711164        -0.153614         2.687638
 H        -1.509815         1.528005         2.804396
 H        -3.119342        -0.977826         2.221804
 H        -4.379037         0.783430         0.786455
 H        -3.082640         2.566773        -0.618786
 H        -2.671587         2.929305         1.067233
 H        -1.114528         1.441653        -1.176055
 H        -0.425285         2.762914        -0.027743
 H        -1.323094        -1.636260         0.368775
