19
Iteration:  4064
 O         0.626010         0.349992         0.709123
 C        -0.673636         0.566953         0.767221
 C        -1.314719         0.625107         2.162283
 C        -2.537183        -0.021225         1.726657
 C        -3.262658         0.754995         0.541197
 C        -2.714193         2.098966         0.248645
 C        -1.146768         1.902165         0.021476
 O        -2.900170        -0.275616        -0.490647
 C        -1.868581        -0.612768         0.469321
 H         1.077987         1.151701         0.180852
 H        -0.593105         0.082466         2.815848
 H        -1.295528         1.586135         2.655650
 H        -3.093258        -0.769206         2.241115
 H        -4.392449         0.862478         0.675912
 H        -3.212119         2.611334        -0.609670
 H        -2.956525         2.830180         1.073856
 H        -1.114849         1.865686        -1.096562
 H        -0.634899         2.787462         0.353060
 H        -1.562696        -1.660261         0.413228
