19
Iteration:  4497charge 0 multiplicity 1
 O         0.681006         0.205958         0.768291
 C        -0.718243         0.609984         0.774676
 C        -1.292695         0.727218         2.209560
 C        -2.528240         0.019397         1.642868
 C        -3.368475         0.732182         0.518804
 C        -2.747441         2.058960         0.349913
 C        -1.308743         1.910996         0.016087
 O        -2.807306        -0.224151        -0.554678
 C        -1.742066        -0.513624         0.449660
 H         0.927221        -0.006291        -0.117413
 H        -0.662034         0.000566         2.797219
 H        -1.441069         1.820943         2.612184
 H        -2.900832        -0.775681         2.315182
 H        -4.431697         0.602438         0.608329
 H        -3.095905         2.818473        -0.432818
 H        -2.887631         2.698953         1.213385
 H        -1.331690         1.635887        -1.030696
 H        -0.783667         2.828284         0.185303
 H        -1.274980        -1.557892         0.334637
