19
Iteration:  2577charge 0 multiplicity 1
 O         0.632459         0.424293         0.510543
 C        -0.728580         0.600140         0.830945
 C        -1.351567         0.633677         2.313191
 C        -2.615890         0.007692         1.707474
 C        -3.316101         0.740814         0.593295
 C        -2.678056         2.068214         0.183360
 C        -1.222255         1.809096         0.088391
 O        -2.755548        -0.232737        -0.431534
 C        -1.772123        -0.598087         0.498369
 H         0.664864         0.317232        -0.535487
 H        -0.830639        -0.184201         2.866534
 H        -1.280926         1.701035         2.653692
 H        -3.296181        -0.415703         2.348964
 H        -4.400700         0.624802         0.462884
 H        -3.310569         2.413191        -0.710337
 H        -2.879402         2.823644         0.991259
 H        -0.892983         1.597890        -0.968331
 H        -0.681602         2.799421         0.278468
 H        -1.279305        -1.562065         0.214068
