19
Iteration:   594
 O         0.534435         0.388527         0.566934
 C        -0.810131         0.695106         0.854789
 C        -1.335939         0.678768         2.270957
 C        -2.615907        -0.006589         1.700305
 C        -3.269406         0.734051         0.459835
 C        -2.656567         2.080530         0.251465
 C        -1.137563         1.847902         0.013733
 O        -2.757700        -0.351115        -0.442976
 C        -1.747271        -0.553484         0.547648
 H         0.577068        -0.000069        -0.283949
 H        -0.656840         0.112738         2.851497
 H        -1.504432         1.602594         2.781231
 H        -3.459371        -0.628907         2.206931
 H        -4.311288         0.739277         0.462774
 H        -3.046851         2.694264        -0.619742
 H        -2.804225         2.747157         1.065451
 H        -0.923002         1.609050        -1.020733
 H        -0.456958         2.652884         0.202776
 H        -1.343495        -1.525792         0.627754
