19
Iteration:  2064
 O         0.624814         0.374265         0.654823
 C        -0.783541         0.623260         0.785600
 C        -1.314723         0.671895         2.205437
 C        -2.575861        -0.105683         1.693688
 C        -3.343391         0.760289         0.651193
 C        -2.671843         2.098677         0.147735
 C        -1.202999         1.816926        -0.023318
 O        -2.830643        -0.254198        -0.402145
 C        -1.761891        -0.548082         0.471791
 H         0.969384         0.978305        -0.109197
 H        -0.708729        -0.028667         2.800960
 H        -1.372488         1.639076         2.865580
 H        -3.020075        -0.944864         2.289554
 H        -4.441340         0.836888         0.736239
 H        -3.095090         2.327993        -0.778215
 H        -2.819167         2.881880         0.912546
 H        -0.986230         1.651551        -1.053787
 H        -0.550253         2.666251         0.336603
 H        -1.211424        -1.422543         0.215757
