19
Iteration:  1414charge 0 multiplicity 1
 O         0.597344         0.238532         0.636135
 C        -0.795599         0.680508         0.789994
 C        -1.331962         0.718553         2.277245
 C        -2.569595        -0.100605         1.696833
 C        -3.295896         0.704267         0.529310
 C        -2.720692         2.109825         0.221979
 C        -1.137449         1.970968         0.078738
 O        -2.842933        -0.263963        -0.475050
 C        -1.731933        -0.564656         0.443818
 H         0.908574         0.330026        -0.270185
 H        -0.545447         0.251912         2.886059
 H        -1.557101         1.633055         2.611031
 H        -3.204911        -0.757869         2.242792
 H        -4.420822         0.731070         0.537894
 H        -3.139007         2.622424        -0.730156
 H        -2.953025         2.623227         1.165240
 H        -0.835369         1.892198        -1.000979
 H        -0.557111         2.758529         0.522712
 H        -1.147597        -1.591167         0.444937
