19
Iteration:  3670charge 0 multiplicity 1
 O         0.599811         0.304395         0.640641
 C        -0.737928         0.579490         0.771934
 C        -1.226032         0.676168         2.226691
 C        -2.594146        -0.023748         1.726340
 C        -3.314117         0.673163         0.474633
 C        -2.749828         2.099061         0.340139
 C        -1.238009         1.830163        -0.027058
 O        -2.748619        -0.191152        -0.481983
 C        -1.796095        -0.568918         0.483810
 H         1.053747         1.254049         0.556132
 H        -0.745921        -0.002481         2.961266
 H        -1.386255         1.693466         2.659447
 H        -3.322503        -0.543913         2.425054
 H        -4.376725         0.742771         0.403566
 H        -3.256462         2.746309        -0.437038
 H        -2.693118         2.733096         1.210527
 H        -1.265782         1.624737        -1.097445
 H        -0.577239         2.686035        -0.193207
 H        -1.547547        -1.621380         0.453229
