19
Iteration:  2922
 O         0.648039         0.330110         0.567229
 C        -0.786685         0.610170         0.764906
 C        -1.306353         0.616713         2.268184
 C        -2.599757        -0.040833         1.719185
 C        -3.303054         0.754088         0.525408
 C        -2.720702         2.187059         0.294771
 C        -1.223453         1.848873        -0.048304
 O        -2.787188        -0.288446        -0.516539
 C        -1.751296        -0.564597         0.540963
 H         1.119465         1.118451         0.550761
 H        -0.764991        -0.120729         2.897195
 H        -1.313705         1.485580         2.955165
 H        -3.280674        -0.613687         2.482622
 H        -4.389202         0.658336         0.526956
 H        -3.134776         2.754106        -0.500479
 H        -2.906906         2.796312         1.256773
 H        -1.121777         1.480764        -1.085300
 H        -0.621266         2.775553         0.195713
 H        -1.438525        -1.626671         0.558215
