19
Iteration:  3576
 O         0.602689         0.295423         0.480144
 C        -0.681870         0.617543         0.814371
 C        -1.333996         0.625791         2.314990
 C        -2.567235         0.009380         1.733091
 C        -3.316808         0.795698         0.591929
 C        -2.734026         2.140926         0.147871
 C        -1.238712         1.847819         0.089759
 O        -2.794951        -0.282027        -0.489161
 C        -1.769824        -0.594108         0.513693
 H         1.073852         1.074171         0.608604
 H        -0.854947        -0.149022         2.970635
 H        -1.384789         1.484378         2.948793
 H        -3.184902        -0.548198         2.391379
 H        -4.408885         0.590573         0.367126
 H        -3.230022         2.413420        -0.827260
 H        -2.947469         2.915863         0.931394
 H        -0.742640         1.869270        -0.909506
 H        -0.621066         2.730291         0.356394
 H        -1.290237        -1.600291         0.272486
