19
Iteration:  1283charge 0 multiplicity 1
 O         0.554052         0.160201         0.528370
 C        -0.757346         0.635919         0.753751
 C        -1.276047         0.689931         2.237672
 C        -2.619796        -0.040526         1.704551
 C        -3.306161         0.677787         0.518329
 C        -2.818520         2.105255         0.202494
 C        -1.166578         1.950857         0.123431
 O        -2.701061        -0.218482        -0.450243
 C        -1.781699        -0.513520         0.544079
 H         1.147420         0.907752         0.425966
 H        -0.644412         0.010989         2.940347
 H        -1.342969         1.673168         2.881876
 H        -3.150530        -0.765357         2.249620
 H        -4.436691         0.632315         0.525439
 H        -3.228986         2.542763        -0.688592
 H        -3.062929         2.824217         0.892674
 H        -0.803261         1.929809        -0.940828
 H        -0.692885         2.814855         0.599505
 H        -1.097103        -1.398889         0.287359
