19
Iteration:  2794
 O         0.653996         0.438727         0.588067
 C        -0.746550         0.536926         0.800287
 C        -1.261919         0.630246         2.228183
 C        -2.606733        -0.016746         1.655256
 C        -3.311546         0.796428         0.579534
 C        -2.693414         2.061315         0.297285
 C        -1.224037         1.819000        -0.030207
 O        -2.798299        -0.213875        -0.489302
 C        -1.850799        -0.639237         0.500505
 H         1.224109         1.116968         0.957454
 H        -0.672927        -0.061472         2.840070
 H        -1.406254         1.601131         2.654823
 H        -3.155875        -0.600496         2.373627
 H        -4.391899         0.656908         0.550144
 H        -3.274286         2.509122        -0.506682
 H        -2.752926         2.554351         1.239921
 H        -1.190715         1.685687        -1.104378
 H        -0.532830         2.710571         0.053759
 H        -1.572865        -1.708840         0.424110
