19
Iteration:  2456
 O         0.629378         0.385000         0.546813
 C        -0.789161         0.600892         0.740171
 C        -1.224811         0.617130         2.251002
 C        -2.585637         0.024061         1.805343
 C        -3.294250         0.710452         0.452166
 C        -2.767212         2.091363         0.157176
 C        -1.187169         1.897544         0.158504
 O        -2.833036        -0.286914        -0.435271
 C        -1.759685        -0.594327         0.524269
 H         0.730631         0.552949        -0.335222
 H        -0.862522        -0.267364         2.747029
 H        -1.163970         1.595587         2.790105
 H        -3.266270        -0.336861         2.473296
 H        -4.372511         0.497086         0.460564
 H        -3.275755         2.585054        -0.704087
 H        -2.972873         2.831461         0.903236
 H        -0.798298         1.854202        -0.948409
 H        -0.541434         2.852674         0.578182
 H        -1.298857        -1.585478         0.626739
