19
Iteration:   425charge 0 multiplicity 1
 O         0.605618         0.273220         0.587817
 C        -0.728634         0.759485         0.826702
 C        -1.273781         0.731350         2.228322
 C        -2.569730        -0.034211         1.691661
 C        -3.322628         0.657554         0.482983
 C        -2.741816         2.032994         0.132760
 C        -1.028092         2.094408         0.172548
 O        -2.870406        -0.408913        -0.443665
 C        -1.841817        -0.513941         0.520093
 H         0.447547        -0.457270        -0.066260
 H        -0.776165        -0.104624         2.815826
 H        -1.470392         1.792395         2.566818
 H        -3.149843        -0.675234         2.278110
 H        -4.423547         0.645971         0.499090
 H        -3.095361         2.134214        -0.868631
 H        -3.203439         2.804772         0.862201
 H        -0.609238         2.112226        -0.781566
 H        -0.604638         3.036561         0.717632
 H        -1.175082        -1.533189         0.450532
