19
Iteration:  4410
 O         0.657744         0.268007         0.685636
 C        -0.767910         0.626963         0.752955
 C        -1.284936         0.635362         2.178451
 C        -2.577837         0.037192         1.649770
 C        -3.349799         0.696500         0.496342
 C        -2.742350         2.150307         0.304285
 C        -1.180825         1.919539         0.013597
 O        -2.794638        -0.264711        -0.464749
 C        -1.812194        -0.609206         0.534589
 H         1.085099         0.984773         0.238831
 H        -0.559592        -0.049953         2.560109
 H        -1.173795         1.653213         2.536665
 H        -3.122847        -0.665658         2.272373
 H        -4.423937         0.691939         0.630229
 H        -3.284449         2.488366        -0.601883
 H        -2.989437         2.639007         1.237880
 H        -0.971087         1.867202        -1.036296
 H        -0.714085         2.807633         0.451318
 H        -1.441454        -1.637893         0.456918
