19
Iteration:  4090charge 0 multiplicity 1
 O         0.705078         0.381381         0.718714
 C        -0.669805         0.626429         0.818216
 C        -1.287474         0.565912         2.200409
 C        -2.603263        -0.033591         1.715268
 C        -3.359698         0.759563         0.532526
 C        -2.717366         2.079686         0.222388
 C        -1.217158         1.735608        -0.045554
 O        -2.918257        -0.159223        -0.452866
 C        -1.785826        -0.573070         0.482109
 H         1.196383         1.179243         0.212218
 H        -0.740111        -0.284609         2.642474
 H        -0.972294         1.347308         2.870150
 H        -3.180472        -0.746062         2.337594
 H        -4.411827         0.858364         0.709084
 H        -3.100244         2.563740        -0.755138
 H        -2.938081         2.939136         0.839626
 H        -1.161564         1.712043        -1.163505
 H        -0.731249         2.789158         0.226320
 H        -1.242036        -1.525175         0.168803
