19
Iteration:  4213
 O         0.603471         0.459688         0.694731
 C        -0.723268         0.571824         0.778268
 C        -1.282091         0.627835         2.251513
 C        -2.539009        -0.137369         1.727666
 C        -3.301627         0.743109         0.527060
 C        -2.665398         2.067609         0.222198
 C        -1.143915         1.819618        -0.012489
 O        -2.865284        -0.161881        -0.441844
 C        -1.825920        -0.598862         0.448115
 H         0.913919         0.744533        -0.181436
 H        -0.720163        -0.054240         2.835904
 H        -1.653863         1.517654         2.777285
 H        -3.356144        -0.712942         2.230002
 H        -4.371997         0.722760         0.676789
 H        -3.191846         2.600586        -0.596975
 H        -2.796323         2.811393         1.034179
 H        -1.048556         1.606275        -1.074613
 H        -0.605631         2.807677         0.245149
 H        -1.577890        -1.615706         0.144865
