19
Iteration:  2571charge 0 multiplicity 1
 O         0.656943         0.437721         0.529586
 C        -0.703360         0.583211         0.835949
 C        -1.366076         0.651124         2.285273
 C        -2.579376        -0.027386         1.700287
 C        -3.311275         0.698292         0.622392
 C        -2.707757         2.040798         0.193639
 C        -1.208165         1.806263         0.055177
 O        -2.822108        -0.199025        -0.477689
 C        -1.759514        -0.571989         0.489100
 H         0.728295         0.227014        -0.371724
 H        -0.863542        -0.026266         2.973173
 H        -1.302855         1.653851         2.639230
 H        -3.411473        -0.404732         2.483060
 H        -4.402533         0.726501         0.566333
 H        -3.198896         2.519374        -0.609388
 H        -2.835178         2.931210         0.820131
 H        -0.964128         1.538809        -0.965824
 H        -0.610807         2.702735         0.429637
 H        -1.242894        -1.533525         0.463170
