19
Iteration:  4470charge 0 multiplicity 1
 O         0.600746         0.330422         0.689111
 C        -0.806751         0.578677         0.778664
 C        -1.336116         0.600986         2.278679
 C        -2.574762        -0.063230         1.709352
 C        -3.278563         0.753414         0.612508
 C        -2.765105         2.071576         0.210865
 C        -1.193429         1.918570        -0.070267
 O        -2.744819        -0.145375        -0.460781
 C        -1.764860        -0.565850         0.464645
 H         0.706311         0.017644        -0.192209
 H        -0.599645        -0.034253         2.846907
 H        -1.397157         1.540747         2.835536
 H        -3.031794        -0.786945         2.414484
 H        -4.366433         0.514825         0.660661
 H        -3.089786         2.427677        -0.739309
 H        -2.897983         2.965502         0.870759
 H        -0.854045         1.849140        -1.176905
 H        -0.615278         2.794349         0.407546
 H        -1.291318        -1.458529         0.051632
