19
Iteration:  3078
 O         0.560064         0.191246         0.703753
 C        -0.727989         0.604887         0.747278
 C        -1.407243         0.794227         2.261343
 C        -2.476782        -0.085104         1.677969
 C        -3.361143         0.723110         0.619899
 C        -2.662982         2.108011         0.322151
 C        -1.212853         1.962477        -0.097787
 O        -2.826403        -0.290525        -0.502196
 C        -1.731217        -0.558293         0.397097
 H         1.268247         0.975028         0.696845
 H        -0.809825         0.226547         2.940929
 H        -1.505675         1.727008         2.732329
 H        -3.044536        -0.911231         2.320127
 H        -4.460028         0.722656         0.678252
 H        -3.284228         2.667229        -0.426725
 H        -2.666304         2.703311         1.225945
 H        -0.897813         1.784552        -1.115117
 H        -0.562987         2.836049         0.087985
 H        -1.194033        -1.428429        -0.063267
