19
Iteration:  1322
 O         0.622583         0.184559         0.531190
 C        -0.762839         0.644840         0.764941
 C        -1.306261         0.739894         2.268384
 C        -2.539961        -0.020819         1.733301
 C        -3.372133         0.715546         0.501937
 C        -2.762902         2.096591         0.213358
 C        -1.182213         1.953569         0.150271
 O        -2.800635        -0.284317        -0.467869
 C        -1.744457        -0.539712         0.420436
 H         1.289385         0.759452         1.115054
 H        -0.784302         0.117862         2.923547
 H        -1.289531         1.769775         2.490387
 H        -3.058389        -0.893015         2.258185
 H        -4.451885         0.670878         0.448190
 H        -3.299207         2.570251        -0.684922
 H        -3.007568         2.699670         1.201211
 H        -0.887213         1.875444        -0.876217
 H        -0.609242         2.796878         0.605524
 H        -1.381546        -1.540607         0.304933
