19
Iteration:   173charge 0 multiplicity 1
 O         0.736170         0.474196         0.828387
 C        -0.722547         0.589376         0.742214
 C        -1.338452         0.665396         2.209445
 C        -2.551379        -0.090206         1.713938
 C        -3.350003         0.726095         0.575043
 C        -2.654741         2.064460         0.262372
 C        -1.230191         1.751595        -0.136794
 O        -2.918026        -0.176016        -0.480827
 C        -1.830520        -0.558385         0.417259
 H         1.082789         0.026777         0.109176
 H        -0.554710         0.129932         2.847547
 H        -1.646467         1.680359         2.542290
 H        -3.153419        -0.633213         2.433308
 H        -4.397628         0.710385         0.680272
 H        -3.230362         2.667088        -0.410088
 H        -2.535833         2.677545         1.275256
 H        -1.118319         1.483971        -1.167610
 H        -0.488646         2.605057        -0.037189
 H        -1.292300        -1.576037         0.208313
