19
Iteration:  2546charge 0 multiplicity 1
 O         0.672321         0.367131         0.765012
 C        -0.710708         0.625374         0.715095
 C        -1.270904         0.731113         2.181366
 C        -2.507344        -0.088202         1.681925
 C        -3.366063         0.708262         0.603623
 C        -2.722884         2.059358         0.262012
 C        -1.223950         1.879709        -0.033992
 O        -2.867533        -0.236469        -0.394926
 C        -1.837768        -0.603075         0.390083
 H         1.000131         0.064178        -0.038031
 H        -0.497222         0.205685         2.794780
 H        -1.260982         1.755777         2.566589
 H        -3.105272        -0.756056         2.321520
 H        -4.434434         0.765223         0.476759
 H        -3.294197         2.593578        -0.519025
 H        -2.860299         2.847208         1.031125
 H        -1.101930         1.663418        -1.139607
 H        -0.640461         2.901928         0.308826
 H        -1.383589        -1.566744         0.122551
