19
Iteration:   211charge 0 multiplicity 1
 O         0.598278         0.351716         0.801736
 C        -0.799598         0.696220         0.732595
 C        -1.303526         0.684427         2.171366
 C        -2.527255        -0.089845         1.738741
 C        -3.299981         0.702985         0.596410
 C        -2.680467         2.037579         0.280595
 C        -1.196979         1.817242        -0.135205
 O        -2.823677        -0.193544        -0.491902
 C        -1.760956        -0.491193         0.479115
 H         0.888579        -0.230272         0.029224
 H        -0.641880         0.096199         2.787836
 H        -1.557868         1.624056         2.665855
 H        -3.151277        -0.751387         2.387046
 H        -4.457696         0.714591         0.666713
 H        -3.177940         2.553179        -0.610013
 H        -2.721074         2.689939         1.134166
 H        -1.128267         1.500612        -1.221111
 H        -0.680582         2.733771        -0.009241
 H        -1.315430        -1.427877         0.294703
