19
Iteration:  1888charge 0 multiplicity 1
 O         0.572507         0.204588         0.574759
 C        -0.790370         0.657676         0.783874
 C        -1.255905         0.697010         2.245956
 C        -2.605497        -0.075053         1.668344
 C        -3.325768         0.722768         0.530407
 C        -2.746898         2.085445         0.268838
 C        -1.246303         1.980824         0.103300
 O        -2.705899        -0.213831        -0.459543
 C        -1.728392        -0.562729         0.554605
 H         0.746276         0.365334        -0.412765
 H        -0.729544        -0.072190         2.710229
 H        -1.261772         1.561498         2.809490
 H        -3.245264        -0.800877         2.161048
 H        -4.412828         0.704292         0.398582
 H        -3.098820         2.222886        -0.691277
 H        -3.184075         2.997698         0.682272
 H        -0.825867         2.065277        -0.898339
 H        -0.639002         2.820924         0.605410
 H        -1.199490        -1.474454         0.373748
