19
Iteration:  3910
 O         0.653627         0.200217         0.552731
 C        -0.717632         0.621926         0.781104
 C        -1.340537         0.681136         2.282766
 C        -2.611282        -0.004392         1.733714
 C        -3.324060         0.696733         0.505351
 C        -2.818045         2.119585         0.281365
 C        -1.275912         1.849260        -0.038466
 O        -2.721337        -0.157667        -0.486720
 C        -1.700413        -0.577676         0.548827
 H         1.280624         1.018819         0.620838
 H        -0.819333        -0.091586         2.827288
 H        -1.401590         1.657967         2.673148
 H        -3.291080        -0.645974         2.333904
 H        -4.453568         0.804749         0.492673
 H        -3.033148         2.781015        -0.519400
 H        -2.912710         2.653335         1.229354
 H        -1.100050         1.721909        -1.142867
 H        -0.644403         2.720665         0.144427
 H        -1.460204        -1.630219         0.582958
