19
Iteration:  1635
 O         0.611589         0.199395         0.693552
 C        -0.714123         0.670855         0.784046
 C        -1.279801         0.653277         2.273609
 C        -2.559233        -0.082347         1.737177
 C        -3.349885         0.692535         0.594252
 C        -2.709438         2.084405         0.231091
 C        -1.226216         1.879060        -0.038476
 O        -2.839304        -0.153738        -0.525220
 C        -1.739481        -0.515703         0.408727
 H         1.207006         1.054007         0.561165
 H        -0.664238         0.021041         2.984197
 H        -1.421734         1.789155         2.693002
 H        -3.125613        -0.787721         2.396062
 H        -4.456814         0.616165         0.739145
 H        -3.180703         2.465811        -0.673306
 H        -2.980683         2.826529         0.988490
 H        -1.146297         1.724733        -1.120613
 H        -0.754719         2.807605         0.153552
 H        -1.270691        -1.522468         0.138531
