19
Iteration:  4737
 O         0.608232         0.221940         0.714287
 C        -0.722595         0.579952         0.753983
 C        -1.293038         0.591421         2.184154
 C        -2.638356        -0.037153         1.741283
 C        -3.279899         0.727592         0.511408
 C        -2.773243         2.200106         0.293131
 C        -1.281804         1.981171         0.002346
 O        -2.668945        -0.170063        -0.507842
 C        -1.733020        -0.584350         0.518376
 H         0.816778         0.296266        -0.320012
 H        -0.758577        -0.034548         2.837597
 H        -1.444589         1.548570         2.663672
 H        -3.207635        -0.687738         2.402563
 H        -4.361171         0.612506         0.520599
 H        -3.341141         2.498711        -0.585225
 H        -3.143661         2.806418         1.083281
 H        -1.225983         1.895222        -1.141189
 H        -0.582531         2.730470         0.285909
 H        -1.483602        -1.683191         0.338151
