19
Iteration:  3912
 O         0.650178         0.202976         0.568863
 C        -0.723686         0.621927         0.777300
 C        -1.353822         0.666561         2.259291
 C        -2.614405         0.007944         1.749604
 C        -3.331049         0.697098         0.519356
 C        -2.813694         2.122953         0.276163
 C        -1.268823         1.853902        -0.038532
 O        -2.728020        -0.151326        -0.494475
 C        -1.686842        -0.586230         0.546642
 H         1.286308         1.052142         0.595145
 H        -0.721015        -0.088241         2.797372
 H        -1.416810         1.634848         2.691996
 H        -3.253526        -0.600299         2.342697
 H        -4.410514         0.695462         0.567736
 H        -2.965082         2.782447        -0.578561
 H        -2.884991         2.598582         1.224799
 H        -1.122948         1.675138        -1.161251
 H        -0.649503         2.786164         0.148589
 H        -1.483634        -1.661195         0.538464
