19
Iteration:   470charge 0 multiplicity 1
 O         0.695761         0.409722         0.770686
 C        -0.704009         0.531913         0.779521
 C        -1.280800         0.710551         2.194339
 C        -2.627649        -0.029485         1.721876
 C        -3.374812         0.716342         0.574715
 C        -2.722269         2.084849         0.247745
 C        -1.266503         1.777363        -0.080189
 O        -2.722432        -0.120988        -0.500739
 C        -1.845176        -0.659651         0.502871
 H         1.146192         0.723880        -0.063375
 H        -0.523903         0.034763         2.697452
 H        -1.382596         1.792118         2.466375
 H        -3.254659        -0.544162         2.412944
 H        -4.449689         0.617852         0.516492
 H        -3.143693         2.462211        -0.638471
 H        -2.884634         2.787760         1.141205
 H        -1.413279         1.420224        -1.045585
 H        -0.532768         2.663493        -0.052790
 H        -1.650599        -1.840327         0.403391
