19
Iteration:  3007charge 0 multiplicity 1
 O         0.599887         0.323037         0.513861
 C        -0.770958         0.604478         0.791986
 C        -1.195693         0.596823         2.281391
 C        -2.647127        -0.000004         1.714322
 C        -3.366010         0.783892         0.508361
 C        -2.739692         2.058813         0.163217
 C        -1.192060         1.932015         0.090367
 O        -2.764861        -0.281755        -0.465412
 C        -1.800107        -0.577160         0.495358
 H         1.119077         1.138028         0.940851
 H        -0.877063        -0.254033         3.039186
 H        -0.969195         1.505246         2.928883
 H        -3.089179        -0.514560         2.465938
 H        -4.459408         0.706188         0.512553
 H        -3.137351         2.363271        -0.799261
 H        -2.970593         2.810349         0.953136
 H        -0.778655         1.821164        -0.961809
 H        -0.541580         2.876263         0.356206
 H        -1.496007        -1.587490         0.677143
