19
Iteration:   524charge 0 multiplicity 1
 O         0.606696         0.347251         0.736381
 C        -0.741198         0.690784         0.813599
 C        -1.361115         0.647867         2.192663
 C        -2.551072        -0.103903         1.717443
 C        -3.274087         0.737697         0.568191
 C        -2.653161         2.083017         0.142594
 C        -1.105228         1.912258        -0.073112
 O        -2.899298        -0.302492        -0.404160
 C        -1.831685        -0.558016         0.486118
 H         0.928910         0.536748        -0.216495
 H        -0.604642         0.065254         2.873307
 H        -1.484806         1.604356         2.809850
 H        -3.179634        -0.650155         2.355019
 H        -4.374036         0.726550         0.671106
 H        -3.155181         2.376468        -0.763473
 H        -3.111607         2.894620         0.898145
 H        -0.888338         1.887210        -1.093169
 H        -0.440566         2.750981         0.256996
 H        -1.177082        -1.512084         0.170626
