19
Iteration:  2398charge 0 multiplicity 1
 O         0.586304         0.406465         0.740238
 C        -0.786300         0.596020         0.702838
 C        -1.347897         0.738964         2.168977
 C        -2.474235        -0.094178         1.624520
 C        -3.293538         0.759366         0.713794
 C        -2.674791         2.043602         0.323760
 C        -1.222113         1.786212        -0.065150
 O        -2.835133        -0.185520        -0.428057
 C        -1.718717        -0.592657         0.379576
 H         0.913888         0.172873        -0.245878
 H        -0.850215         0.226636         2.999543
 H        -1.550154         1.740166         2.627061
 H        -3.095074        -0.731339         2.289054
 H        -4.415180         0.716768         0.700262
 H        -3.253493         2.312194        -0.550893
 H        -2.727186         2.820970         1.084010
 H        -1.114534         1.630934        -1.188003
 H        -0.727885         2.671943         0.350483
 H        -1.361454        -1.623817         0.204598
