19
Iteration:   896
 O         0.588697         0.334294         0.658573
 C        -0.734393         0.618216         0.747528
 C        -1.242232         0.589386         2.281738
 C        -2.557491         0.029851         1.744907
 C        -3.294319         0.719873         0.543299
 C        -2.728086         2.041784         0.169498
 C        -1.227315         1.880466        -0.051377
 O        -2.857494        -0.266451        -0.462618
 C        -1.760225        -0.546903         0.468181
 H         1.147606         1.039416         0.815736
 H        -0.664909        -0.140278         2.849678
 H        -1.404056         1.416286         2.950874
 H        -3.261679        -0.440276         2.339596
 H        -4.427078         0.896141         0.654136
 H        -3.283845         2.619053        -0.677505
 H        -2.772257         2.759668         1.098591
 H        -0.924080         1.913188        -1.090382
 H        -0.648953         2.772485         0.192469
 H        -1.309660        -1.604213         0.321088
