19
Iteration:  4677
 O         0.673386         0.419265         0.727086
 C        -0.720606         0.568409         0.819510
 C        -1.310104         0.563122         2.203947
 C        -2.560153        -0.017754         1.620658
 C        -3.272373         0.813208         0.556556
 C        -2.737234         2.125391         0.169902
 C        -1.178353         1.879348         0.037871
 O        -2.876290        -0.255066        -0.433145
 C        -1.812590        -0.671934         0.442389
 H         0.996783         0.569963        -0.143209
 H        -0.671006        -0.213860         2.765067
 H        -1.538218         1.418308         2.879681
 H        -3.268744        -0.629531         2.257320
 H        -4.374067         0.941419         0.716255
 H        -3.073374         2.632662        -0.764942
 H        -2.879616         2.906571         1.015393
 H        -1.029731         1.953654        -0.950434
 H        -0.595529         2.676483         0.558104
 H        -1.597114        -1.685231         0.196526
