19
Iteration:    32charge 0 multiplicity 1
 O         0.649932         0.572837         0.713582
 C        -0.748833         0.620352         0.775930
 C        -1.412945         0.709618         2.251121
 C        -2.520618        -0.125683         1.686719
 C        -3.331646         0.687123         0.594354
 C        -2.581843         2.162045         0.289850
 C        -1.175689         1.650989        -0.240102
 O        -2.833892        -0.158913        -0.461762
 C        -1.865684        -0.607522         0.483331
 H         1.000246        -0.367880         0.817452
 H        -0.775118        -0.045844         2.827504
 H        -1.671849         1.663989         2.767572
 H        -3.006958        -0.849113         2.343805
 H        -4.410618         0.740310         0.667300
 H        -3.145972         2.806872        -0.197342
 H        -2.395872         2.651212         1.295631
 H        -1.344338         1.283756        -1.161207
 H        -0.465855         2.419545        -0.418457
 H        -1.568685        -1.755635         0.370866
