19
Iteration:   732charge 0 multiplicity 1
 O         0.645880         0.265790         0.655836
 C        -0.772661         0.645261         0.736472
 C        -1.213191         0.684460         2.245839
 C        -2.594186         0.031997         1.738735
 C        -3.357890         0.734579         0.479284
 C        -2.831176         2.083343         0.186982
 C        -1.234761         1.899289         0.046674
 O        -2.750453        -0.275303        -0.465656
 C        -1.742302        -0.490038         0.573871
 H         0.821768        -0.465239        -0.068400
 H        -0.725557        -0.150678         2.853216
 H        -1.047173         1.602352         2.881618
 H        -3.273006        -0.448420         2.324042
 H        -4.471842         0.441763         0.513613
 H        -3.125069         2.397854        -0.742813
 H        -3.326021         2.804791         0.860835
 H        -0.881619         1.889381        -1.012712
 H        -0.570155         2.806228         0.343911
 H        -1.148722        -1.471800         0.352369
