19
Iteration:  2603
 O         0.562692         0.283563         0.577465
 C        -0.763186         0.632031         0.750922
 C        -1.236057         0.617781         2.284763
 C        -2.559978         0.004731         1.735695
 C        -3.331768         0.697566         0.481500
 C        -2.744251         2.181281         0.197816
 C        -1.252271         1.923658         0.076260
 O        -2.763883        -0.299227        -0.507809
 C        -1.763670        -0.561502         0.621910
 H         0.989461         0.719445        -0.299498
 H        -0.582052        -0.142626         2.697538
 H        -1.056247         1.580902         2.661942
 H        -3.321241        -0.522903         2.466096
 H        -4.385685         0.506025         0.333844
 H        -3.299984         2.548790        -0.628126
 H        -2.889884         2.662745         1.190060
 H        -0.903097         1.860004        -0.983370
 H        -0.620518         2.934745         0.400092
 H        -1.276356        -1.530953         0.699980
