19
Iteration:  1884
 O         0.549999         0.184717         0.606941
 C        -0.747751         0.638626         0.781165
 C        -1.259315         0.695243         2.174538
 C        -2.583869        -0.077545         1.678254
 C        -3.320731         0.736440         0.522764
 C        -2.796213         2.076396         0.263884
 C        -1.243606         1.977357         0.113205
 O        -2.712321        -0.197706        -0.459274
 C        -1.710803        -0.549940         0.558690
 H         0.710078         0.314420        -0.369350
 H        -0.621588        -0.131167         2.744567
 H        -1.208100         1.666273         2.890554
 H        -3.227337        -0.764228         2.261437
 H        -4.420886         0.719969         0.445806
 H        -3.183654         2.321174        -0.828047
 H        -3.211544         2.975658         0.704038
 H        -0.782906         2.152520        -0.880465
 H        -0.769484         2.792079         0.670428
 H        -1.114797        -1.485265         0.332921
