19
Iteration:  3657charge 0 multiplicity 1
 O         0.573331         0.293387         0.581216
 C        -0.806194         0.640739         0.780431
 C        -1.375024         0.718787         2.231031
 C        -2.579750        -0.034784         1.686322
 C        -3.325515         0.724799         0.613850
 C        -2.653474         2.111070         0.326000
 C        -1.248538         1.744593        -0.102537
 O        -2.720073        -0.170803        -0.498368
 C        -1.728005        -0.560694         0.509655
 H         1.113350         1.015923         0.805971
 H        -0.734081         0.054179         2.752455
 H        -1.390714         1.684679         2.775667
 H        -3.256163        -0.769532         2.295749
 H        -4.407978         0.488458         0.678724
 H        -3.193978         2.628833        -0.458895
 H        -2.699169         2.607420         1.298331
 H        -1.138087         1.349581        -1.120459
 H        -0.603289         2.572406         0.280830
 H        -1.121413        -1.410476         0.261409
