19
Iteration:  2846
 O         0.580039         0.156943         0.633575
 C        -0.774089         0.638265         0.751606
 C        -1.285603         0.701273         2.235446
 C        -2.528775         0.000261         1.728180
 C        -3.321546         0.688173         0.586609
 C        -2.771825         2.101179         0.270056
 C        -1.221449         1.933323        -0.015255
 O        -2.811815        -0.235960        -0.558479
 C        -1.725270        -0.497858         0.485737
 H         1.291290         0.931278         0.688863
 H        -0.710314         0.010259         2.872294
 H        -1.379570         1.574258         2.978823
 H        -2.900146        -0.889366         2.421179
 H        -4.370767         0.471655         0.664712
 H        -3.215676         2.504076        -0.600655
 H        -2.934214         2.805998         1.153375
 H        -1.046144         1.922536        -1.088779
 H        -0.778280         2.853991         0.331873
 H        -1.085861        -1.385920         0.299410
