19
Iteration:  1836charge 0 multiplicity 1
 O         0.680432         0.439446         0.727838
 C        -0.729297         0.630055         0.755950
 C        -1.364076         0.570347         2.154593
 C        -2.572739        -0.089570         1.642652
 C        -3.361900         0.736762         0.579213
 C        -2.660706         2.095548         0.271283
 C        -1.152787         1.858936         0.022017
 O        -2.900527        -0.215900        -0.431533
 C        -1.757913        -0.545474         0.424836
 H         0.905601         0.170749        -0.122326
 H        -0.833337        -0.065768         2.810752
 H        -1.527091         1.508705         2.665798
 H        -3.131520        -0.805185         2.236734
 H        -4.455085         0.744023         0.618900
 H        -3.108143         2.735431        -0.458115
 H        -2.747856         2.733883         1.191686
 H        -0.924733         1.527336        -1.011435
 H        -0.456298         2.657303         0.250326
 H        -1.383874        -1.540109         0.313384
