19
Iteration:  4136charge 0 multiplicity 1
 O         0.626753         0.283165         0.623695
 C        -0.834111         0.620249         0.732244
 C        -1.362191         0.719056         2.142634
 C        -2.584781        -0.054326         1.683607
 C        -3.300473         0.686220         0.493737
 C        -2.677981         2.107226         0.348734
 C        -1.168130         1.908730         0.090942
 O        -2.740618        -0.218634        -0.432049
 C        -1.755989        -0.590873         0.460810
 H         0.854527         0.290611        -0.401593
 H        -0.805214         0.188591         2.876142
 H        -1.597499         1.679710         2.687647
 H        -3.155848        -0.653725         2.452425
 H        -4.373120         0.763684         0.449554
 H        -3.343120         2.559745        -0.414825
 H        -2.933322         2.710336         1.242271
 H        -1.143640         1.846599        -0.989422
 H        -0.447032         2.748041         0.427291
 H        -1.400503        -1.607548         0.610099
