19
Iteration:  1401charge 0 multiplicity 1
 O         0.666081         0.292243         0.701567
 C        -0.702199         0.661146         0.753258
 C        -1.333834         0.697936         2.232535
 C        -2.544322        -0.055718         1.712653
 C        -3.349670         0.706043         0.523621
 C        -2.642032         2.045988         0.331493
 C        -1.169412         1.903579        -0.005865
 O        -2.862737        -0.270763        -0.535352
 C        -1.870785        -0.568115         0.461523
 H         1.144124         0.902362         0.009163
 H        -0.863256         0.118453         3.010169
 H        -1.514812         1.610093         2.638542
 H        -3.149691        -0.630644         2.424918
 H        -4.449242         0.707577         0.591663
 H        -3.216459         2.602593        -0.501493
 H        -2.799082         2.832698         1.113696
 H        -1.009834         1.812461        -1.066733
 H        -0.675224         2.843796         0.301460
 H        -1.347951        -1.525352         0.148493
