19
Iteration:  1542
 O         0.575916         0.190098         0.691054
 C        -0.710627         0.616327         0.768177
 C        -1.265910         0.699311         2.208985
 C        -2.478816        -0.067970         1.696853
 C        -3.372741         0.719430         0.557482
 C        -2.773003         2.064044         0.290167
 C        -1.262053         1.901407        -0.012796
 O        -2.765746        -0.126414        -0.522043
 C        -1.766973        -0.569981         0.435784
 H         1.207241         0.774614         1.051248
 H        -0.630146         0.097832         2.877307
 H        -1.437131         1.803925         2.710519
 H        -3.114333        -0.713461         2.318739
 H        -4.448344         0.641298         0.658928
 H        -3.146993         2.583053        -0.609138
 H        -3.012182         2.831920         1.069036
 H        -1.205033         1.663300        -1.084211
 H        -0.557710         2.807059         0.210794
 H        -1.432225        -1.548306         0.191647
