19
Iteration:  1964
 O         0.629305         0.332919         0.861570
 C        -0.735671         0.629158         0.687606
 C        -1.293033         0.708912         2.273536
 C        -2.488352        -0.092084         1.666787
 C        -3.338872         0.698559         0.597137
 C        -2.709567         2.073014         0.243965
 C        -1.278488         1.853383        -0.168759
 O        -2.869882        -0.156041        -0.393863
 C        -1.728919        -0.567363         0.357325
 H         1.094696         0.173338         0.037186
 H        -0.647677        -0.047013         2.692339
 H        -1.321203         1.724798         2.813517
 H        -3.115280        -0.841337         2.157678
 H        -4.422835         0.678605         0.712491
 H        -3.204034         2.634231        -0.513710
 H        -2.702175         2.651508         1.171527
 H        -1.228153         1.640066        -1.204123
 H        -0.661249         2.805722         0.016515
 H        -1.445266        -1.572529         0.190713
