19
Iteration:  4778charge 0 multiplicity 1
 O         0.719398         0.461224         0.724814
 C        -0.772191         0.570070         0.823940
 C        -1.407864         0.619132         2.236970
 C        -2.551026        -0.135852         1.621255
 C        -3.317951         0.786722         0.543371
 C        -2.643039         2.108641         0.346005
 C        -1.110727         1.846179        -0.006422
 O        -2.918235        -0.243427        -0.501658
 C        -1.809935        -0.580740         0.399880
 H         1.001907         0.244530        -0.127843
 H        -0.817241         0.029420         2.970136
 H        -1.433548         1.658597         2.605031
 H        -3.301322        -0.578978         2.237388
 H        -4.403095         0.932622         0.534041
 H        -3.000864         2.600059        -0.569974
 H        -2.870523         2.730638         1.274323
 H        -1.252773         1.561723        -0.971286
 H        -0.420047         2.664703         0.021023
 H        -1.343617        -1.579843         0.320130
