19
Iteration:  1402
 O         0.662553         0.286366         0.696051
 C        -0.712244         0.671211         0.755395
 C        -1.335100         0.696765         2.238522
 C        -2.544343        -0.055219         1.718723
 C        -3.348720         0.706889         0.524709
 C        -2.642740         2.049453         0.326789
 C        -1.165497         1.910262        -0.000847
 O        -2.863269        -0.271543        -0.536646
 C        -1.866321        -0.572285         0.462234
 H         1.171851         0.867919        -0.030596
 H        -0.821935         0.149551         3.028885
 H        -1.527687         1.592554         2.628124
 H        -3.149810        -0.636612         2.395217
 H        -4.461459         0.688891         0.574514
 H        -3.206291         2.611985        -0.532165
 H        -2.814250         2.814678         1.121352
 H        -0.993332         1.813856        -1.082202
 H        -0.681630         2.830318         0.330010
 H        -1.300146        -1.546661         0.150530
