19
Iteration:  3221charge 0 multiplicity 1
 O         0.595514         0.347783         0.600596
 C        -0.777238         0.670588         0.768181
 C        -1.368221         0.643526         2.293217
 C        -2.564497        -0.094142         1.682183
 C        -3.313301         0.708039         0.539257
 C        -2.614223         2.078623         0.349618
 C        -1.209041         1.810824        -0.100059
 O        -2.809289        -0.166050        -0.482199
 C        -1.774879        -0.576080         0.469938
 H         1.172198         0.857865         1.314604
 H        -0.688256        -0.048900         2.794325
 H        -1.512153         1.508454         2.960283
 H        -3.211758        -0.852518         2.327120
 H        -4.409630         0.809464         0.629119
 H        -3.188991         2.476939        -0.546807
 H        -2.479299         2.868732         1.089215
 H        -1.112748         1.668144        -1.196865
 H        -0.625997         2.829683        -0.069318
 H        -1.444086        -1.606352         0.209258
