19
Iteration:  4056charge 0 multiplicity 1
 O         0.623613         0.318237         0.668286
 C        -0.751905         0.648067         0.771450
 C        -1.293421         0.705095         2.191467
 C        -2.568414        -0.071899         1.683207
 C        -3.282901         0.742915         0.505508
 C        -2.655215         2.129401         0.295622
 C        -1.173894         1.859741         0.046728
 O        -2.901138        -0.260581        -0.479283
 C        -1.812210        -0.634969         0.471692
 H         1.106453         0.998101         0.053643
 H        -0.802457        -0.008581         2.894733
 H        -1.333754         1.708594         2.559640
 H        -3.178192        -0.657858         2.378076
 H        -4.335559         0.771151         0.723158
 H        -3.061444         2.361668        -0.723362
 H        -2.918022         2.669985         1.177928
 H        -1.036858         1.846752        -1.094123
 H        -0.614835         2.802725         0.466574
 H        -1.308407        -1.643682         0.390768
