19
Iteration:   438charge 0 multiplicity 1
 O         0.563844         0.263334         0.623591
 C        -0.759232         0.715713         0.786013
 C        -1.337522         0.732250         2.261541
 C        -2.572113        -0.027784         1.678320
 C        -3.340201         0.688681         0.512977
 C        -2.647650         2.029864         0.148496
 C        -1.174600         1.987583         0.109280
 O        -2.828917        -0.366899        -0.414014
 C        -1.701703        -0.469412         0.471424
 H         0.584989        -0.265682        -0.242305
 H        -0.637017         0.130614         2.936203
 H        -1.383845         1.641301         2.924464
 H        -3.204238        -0.741541         2.208588
 H        -4.396421         0.765497         0.593845
 H        -2.938471         2.448608        -0.772694
 H        -3.096899         2.798016         0.849487
 H        -0.928640         1.911304        -0.981418
 H        -0.600986         2.910530         0.596651
 H        -1.138052        -1.509828         0.359326
