19
Iteration:  2597charge 0 multiplicity 1
 O         0.565275         0.325962         0.546795
 C        -0.762171         0.606747         0.770356
 C        -1.237914         0.609038         2.298556
 C        -2.549540        -0.034806         1.748890
 C        -3.314379         0.691280         0.439915
 C        -2.747922         2.149055         0.209667
 C        -1.224460         1.927718         0.046165
 O        -2.752850        -0.268842        -0.484298
 C        -1.785298        -0.556697         0.645106
 H         0.793497         0.634895        -0.344938
 H        -0.622032        -0.223906         2.710421
 H        -1.209191         1.636303         2.822158
 H        -3.202917        -0.622715         2.364542
 H        -4.440191         0.695822         0.324819
 H        -3.225647         2.784684        -0.622409
 H        -3.096065         2.871530         0.990436
 H        -0.995806         1.824312        -1.018059
 H        -0.588318         2.641039         0.415393
 H        -1.326543        -1.551228         0.893173
