19
Iteration:  2097
 O         0.735686         0.264749         0.774823
 C        -0.747053         0.620883         0.746550
 C        -1.273651         0.771178         2.167244
 C        -2.506620        -0.094109         1.725535
 C        -3.345972         0.701098         0.609591
 C        -2.712139         2.054251         0.249475
 C        -1.300883         1.841715        -0.166897
 O        -2.893980        -0.208724        -0.502657
 C        -1.801810        -0.535746         0.464090
 H         1.200136         0.993635         0.552247
 H        -0.662082         0.302744         2.976018
 H        -1.530286         1.859615         2.554721
 H        -3.072742        -0.920812         2.242775
 H        -4.437657         0.758480         0.802940
 H        -3.367957         2.717232        -0.175772
 H        -2.646527         2.450336         1.265447
 H        -1.111723         1.690335        -1.196956
 H        -0.688711         2.700127         0.201756
 H        -1.268691        -1.449571         0.310530
