19
Iteration:  3453charge 0 multiplicity 1
 O         0.573318         0.304047         0.468871
 C        -0.776972         0.567008         0.814178
 C        -1.277266         0.628844         2.313027
 C        -2.581661         0.019144         1.754388
 C        -3.313142         0.759128         0.454375
 C        -2.774563         2.076532         0.210119
 C        -1.130276         1.906019         0.098188
 O        -2.750823        -0.230886        -0.470322
 C        -1.793467        -0.602033         0.513381
 H         1.150016         1.181298         0.527702
 H        -0.893608        -0.178523         2.965815
 H        -1.301179         1.573170         2.877809
 H        -3.104393        -0.754107         2.289353
 H        -4.405275         0.703980         0.615380
 H        -3.237253         2.630305        -0.655111
 H        -3.194711         2.711080         0.989682
 H        -0.707022         1.745142        -0.938324
 H        -0.693587         2.889876         0.311234
 H        -1.380243        -1.616961         0.578973
