19
Iteration:  2824
 O         0.600367         0.326712         0.528225
 C        -0.740443         0.622742         0.857602
 C        -1.374392         0.708255         2.246673
 C        -2.605408        -0.117973         1.647173
 C        -3.322074         0.729555         0.524460
 C        -2.665513         2.079414         0.316588
 C        -1.204617         1.850473        -0.047212
 O        -2.819923        -0.193515        -0.436823
 C        -1.705397        -0.584330         0.469529
 H         1.175829         0.985286         0.864996
 H        -0.702332         0.270015         2.993247
 H        -1.386521         1.652382         2.807482
 H        -3.215393        -0.752724         2.449641
 H        -4.404807         0.778988         0.504232
 H        -3.279392         2.614741        -0.355059
 H        -2.665472         2.645479         1.300788
 H        -1.292690         1.553726        -1.084540
 H        -0.451878         2.553176         0.026360
 H        -1.228667        -1.576301         0.283592
