19
Iteration:  1397
 O         0.679162         0.316621         0.717147
 C        -0.676747         0.621306         0.754382
 C        -1.329394         0.696350         2.201768
 C        -2.554642        -0.057293         1.687150
 C        -3.346801         0.704421         0.527945
 C        -2.654453         2.046494         0.338245
 C        -1.179999         1.880758        -0.015892
 O        -2.863369        -0.260021        -0.521348
 C        -1.868021        -0.556349         0.449299
 H         1.025377         0.988093         0.189073
 H        -0.936023        -0.030215         2.950210
 H        -1.480851         1.789768         2.713781
 H        -3.138361        -0.610325         2.475514
 H        -4.422052         0.784615         0.639381
 H        -3.204630         2.535184        -0.409047
 H        -2.746637         2.803424         1.125282
 H        -1.061165         1.769596        -1.105909
 H        -0.641161         2.842191         0.211798
 H        -1.499710        -1.498351         0.200503
