19
Iteration:  1533
 O         0.605868         0.181333         0.733183
 C        -0.741966         0.679119         0.771274
 C        -1.244859         0.695444         2.168151
 C        -2.498991        -0.049949         1.618991
 C        -3.365092         0.693423         0.598968
 C        -2.717104         2.105233         0.353287
 C        -1.290367         1.847938        -0.017690
 O        -2.813040        -0.119159        -0.514226
 C        -1.710532        -0.575241         0.381523
 H         1.078093         0.756017         1.298608
 H        -0.770445         0.061397         2.962511
 H        -1.431467         1.928056         2.602768
 H        -3.003688        -0.669616         2.309003
 H        -4.450767         0.587878         0.497231
 H        -3.374994         2.343717        -0.547967
 H        -2.786027         2.913330         1.084007
 H        -1.222274         1.503983        -1.058397
 H        -0.742818         2.782944        -0.045418
 H        -1.526601        -1.640472         0.335629
