19
Iteration:   630
 O         0.735446         0.375928         0.896647
 C        -0.693804         0.602625         0.690956
 C        -1.294850         0.704227         2.128848
 C        -2.568589        -0.029441         1.619279
 C        -3.360212         0.752542         0.641464
 C        -2.743699         2.073593         0.243685
 C        -1.227773         1.722156        -0.132228
 O        -2.877889        -0.160611        -0.424509
 C        -1.791886        -0.593644         0.466612
 H         1.231592         0.800523         0.206765
 H        -0.583805         0.170755         2.717236
 H        -1.470613         1.713413         2.409859
 H        -3.191308        -0.702112         2.233892
 H        -4.502072         0.662330         0.656812
 H        -3.333796         2.386615        -0.630389
 H        -2.831891         2.679647         1.061427
 H        -1.149413         1.315112        -1.201615
 H        -0.677675         2.635114         0.151923
 H        -1.416055        -1.571910         0.385735
