19
Iteration:  4083
 O         0.756804         0.376970         0.740084
 C        -0.761648         0.630779         0.760743
 C        -1.230485         0.554619         2.214857
 C        -2.600901        -0.050403         1.687207
 C        -3.407391         0.767961         0.546576
 C        -2.713750         2.125264         0.189076
 C        -1.198877         1.801794        -0.066857
 O        -2.898927        -0.184998        -0.434029
 C        -1.817980        -0.612547         0.449631
 H         1.205939         1.196273         0.303965
 H        -0.831769        -0.293440         2.778078
 H        -1.024362         1.512836         2.879237
 H        -3.242411        -0.593952         2.434216
 H        -4.501457         0.749432         0.821407
 H        -3.154866         2.391210        -0.729931
 H        -2.779304         2.778680         1.102855
 H        -0.996374         1.752484        -1.122572
 H        -0.733893         2.669334         0.383044
 H        -1.273202        -1.528936         0.316541
