19
Iteration:   572
 O         0.672733         0.224074         0.535553
 C        -0.745450         0.624985         0.814105
 C        -1.288458         0.689165         2.275577
 C        -2.632661         0.119413         1.735673
 C        -3.345533         0.699912         0.461691
 C        -2.853369         2.090973         0.137562
 C        -1.228000         1.975620         0.119346
 O        -2.676251        -0.263255        -0.467103
 C        -1.763467        -0.605271         0.587583
 H         0.923581        -0.354391        -0.267534
 H        -0.914069        -0.026719         2.935048
 H        -1.171201         1.593980         2.830445
 H        -3.282652        -0.509633         2.475482
 H        -4.367614         0.518701         0.342347
 H        -3.282831         2.590086        -0.780574
 H        -3.122311         2.748652         0.897554
 H        -0.784996         1.983490        -0.869203
 H        -0.709166         2.812903         0.545222
 H        -1.320240        -1.550293         0.655405
