19
Iteration:  4889charge 0 multiplicity 1
 O         0.675279         0.360375         0.725114
 C        -0.735213         0.569103         0.738155
 C        -1.280547         0.660345         2.290629
 C        -2.592438        -0.020615         1.653290
 C        -3.308660         0.736742         0.446950
 C        -2.719891         2.105051         0.321718
 C        -1.230817         1.835050         0.026796
 O        -2.815774        -0.228767        -0.493571
 C        -1.794118        -0.548539         0.440937
 H         1.014947         0.218175        -0.270824
 H        -0.672788         0.063719         2.968038
 H        -1.344326         1.712566         2.724882
 H        -3.330991        -0.545928         2.307642
 H        -4.403582         0.556646         0.487405
 H        -3.109707         2.777291        -0.495874
 H        -2.924661         2.595752         1.314335
 H        -1.149092         1.806976        -1.035949
 H        -0.627774         2.650425         0.354843
 H        -1.635923        -1.669543         0.359736
