19
Iteration:  2102
 O         0.725792         0.236371         0.765155
 C        -0.752555         0.638059         0.725886
 C        -1.279520         0.795692         2.195825
 C        -2.500074        -0.084757         1.699847
 C        -3.394699         0.732236         0.588386
 C        -2.737447         2.041726         0.303979
 C        -1.300243         1.848139        -0.152547
 O        -2.843137        -0.252823        -0.466360
 C        -1.785692        -0.519522         0.453416
 H         1.270480         1.126059         0.552554
 H        -0.689191         0.042092         2.766450
 H        -1.376979         1.777695         2.493019
 H        -3.077129        -0.833861         2.303235
 H        -4.517887         0.783907         0.521101
 H        -3.391397         2.867859        -0.216296
 H        -2.568475         2.598194         1.262237
 H        -1.098960         1.631129        -1.280061
 H        -0.730627         2.713480         0.177670
 H        -1.316085        -1.553866         0.302278
