19
Iteration:  1589
 O         0.606681         0.325811         0.390256
 C        -0.794438         0.597115         0.870507
 C        -1.285173         0.622385         2.334862
 C        -2.599980         0.019557         1.731799
 C        -3.255445         0.738278         0.402342
 C        -2.705430         2.099455         0.177025
 C        -1.129060         1.909302         0.249852
 O        -2.815757        -0.333872        -0.492639
 C        -1.828721        -0.554635         0.537916
 H         0.905892         1.288246         0.153175
 H        -0.806282        -0.135759         3.035837
 H        -1.354257         1.769902         2.886328
 H        -3.315527        -0.517439         2.302135
 H        -4.359023         0.711738         0.314077
 H        -3.181291         2.522679        -0.756591
 H        -3.105751         2.770022         0.938493
 H        -0.689655         1.742963        -0.772500
 H        -0.562461         2.688971         0.764401
 H        -1.382835        -1.582144         0.551820
