19
Iteration:  4499
 O         0.690757         0.211200         0.766623
 C        -0.710743         0.588217         0.795401
 C        -1.292297         0.744168         2.211308
 C        -2.519049         0.030417         1.646476
 C        -3.360504         0.732069         0.505436
 C        -2.734762         2.072190         0.371941
 C        -1.304709         1.897995        -0.008971
 O        -2.812578        -0.242998        -0.546453
 C        -1.756854        -0.519267         0.432420
 H         0.881319         0.068962        -0.107171
 H        -0.764627        -0.017039         2.795538
 H        -1.504355         1.775928         2.541311
 H        -2.974428        -0.763395         2.245174
 H        -4.426476         0.569527         0.626608
 H        -3.125901         2.824698        -0.388306
 H        -2.915720         2.728436         1.250483
 H        -1.385715         1.730656        -1.042605
 H        -0.798554         2.842909         0.259289
 H        -1.260500        -1.487102         0.290972
