19
Iteration:  4928charge 0 multiplicity 1
 O         0.593596         0.354163         0.838057
 C        -0.808538         0.597226         0.754483
 C        -1.289974         0.577700         2.255907
 C        -2.446779        -0.088293         1.697406
 C        -3.290303         0.742710         0.570194
 C        -2.698359         2.077949         0.216989
 C        -1.198596         1.842320        -0.064530
 O        -2.900548        -0.153938        -0.444784
 C        -1.779233        -0.503304         0.349478
 H         0.961175         0.645741         0.004967
 H        -0.628166        -0.118901         2.807984
 H        -1.455866         1.523556         2.718841
 H        -3.026946        -0.891921         2.062032
 H        -4.363219         0.847818         0.707325
 H        -3.207278         2.304511        -0.705537
 H        -2.776142         2.965192         0.824470
 H        -0.941704         1.579262        -1.136775
 H        -0.587060         2.724771         0.363783
 H        -1.302703        -1.420789         0.150872
