19
Iteration:  4856charge 0 multiplicity 1
 O         0.601447         0.331403         0.535059
 C        -0.761158         0.613269         0.789216
 C        -1.404835         0.659876         2.277667
 C        -2.660772        -0.077412         1.726639
 C        -3.269713         0.697398         0.513105
 C        -2.653954         2.110193         0.310395
 C        -1.155312         1.905285         0.061351
 O        -2.689487        -0.225229        -0.490770
 C        -1.803592        -0.559735         0.517132
 H         0.860678         0.272010        -0.396640
 H        -0.759944         0.052022         2.905324
 H        -1.631088         1.674705         2.722786
 H        -3.447494        -0.629598         2.296208
 H        -4.372952         0.742030         0.365501
 H        -3.072231         2.606344        -0.600387
 H        -2.983614         2.762665         1.171480
 H        -1.057495         1.909032        -0.979215
 H        -0.562246         2.691363         0.475541
 H        -1.422299        -1.650612         0.424834
