19
Iteration:  1592charge 0 multiplicity 1
 O         0.607778         0.332677         0.400159
 C        -0.786349         0.558876         0.877802
 C        -1.280177         0.615019         2.337025
 C        -2.600227         0.034430         1.741032
 C        -3.266376         0.718142         0.408170
 C        -2.711148         2.108994         0.164716
 C        -1.158764         1.939555         0.223110
 O        -2.814516        -0.327282        -0.496047
 C        -1.814434        -0.551972         0.535399
 H         0.980201         1.250761         0.136397
 H        -0.767375        -0.114696         3.016667
 H        -1.312165         1.739109         2.847693
 H        -3.395718        -0.504568         2.330685
 H        -4.381365         0.725608         0.296172
 H        -3.106888         2.511116        -0.769115
 H        -2.953925         2.803373         1.006630
 H        -0.708980         1.740446        -0.732975
 H        -0.622876         2.604856         0.859148
 H        -1.390093        -1.610172         0.525926
