19
Iteration:  1713
 O         0.630526         0.309950         0.452526
 C        -0.703134         0.582196         0.853757
 C        -1.241317         0.578251         2.322678
 C        -2.613389         0.052211         1.708254
 C        -3.402904         0.773045         0.505255
 C        -2.770752         2.074734         0.179677
 C        -1.188549         1.915865         0.156782
 O        -2.769279        -0.232209        -0.510285
 C        -1.785723        -0.560151         0.479663
 H         1.188208         0.799692         1.092189
 H        -0.705121        -0.149736         2.907274
 H        -1.158692         1.528560         2.888891
 H        -3.077004        -0.647251         2.458185
 H        -4.511627         0.798548         0.386461
 H        -3.159416         2.064898        -0.796760
 H        -3.153203         2.860230         0.841140
 H        -0.983552         1.708487        -0.840201
 H        -0.727854         2.715951         0.604194
 H        -1.397944        -1.599767         0.338068
