19
Iteration:   937
 O         0.712174         0.368049         0.609750
 C        -0.779037         0.578797         0.783731
 C        -1.418533         0.715842         2.273335
 C        -2.553060        -0.048768         1.652181
 C        -3.332605         0.775047         0.562573
 C        -2.635096         2.058563         0.389333
 C        -1.236684         1.719274        -0.138544
 O        -2.792186        -0.179777        -0.462240
 C        -1.766139        -0.606319         0.470372
 H         0.932427         1.407981         0.633238
 H        -0.853292         0.299185         3.128285
 H        -1.682473         1.738879         2.633054
 H        -3.301211        -0.667099         2.415175
 H        -4.450149         0.627539         0.485593
 H        -3.249028         2.687157        -0.377576
 H        -2.621061         2.570344         1.338243
 H        -1.229891         1.284798        -1.213802
 H        -0.642779         2.619745        -0.113493
 H        -1.337866        -1.577621         0.231547
