19
Iteration:   493charge 0 multiplicity 1
 O         0.695701         0.501469         0.815242
 C        -0.710394         0.553232         0.805824
 C        -1.315363         0.669136         2.193639
 C        -2.581211         0.012812         1.632539
 C        -3.357392         0.756993         0.544380
 C        -2.655417         2.099720         0.303173
 C        -1.188472         1.676189        -0.199338
 O        -2.914108        -0.258826        -0.454569
 C        -1.808899        -0.583773         0.467366
 H         1.042578         1.073418         0.162752
 H        -0.789409        -0.163462         2.747820
 H        -1.385111         1.691274         2.614195
 H        -3.266632        -0.586870         2.253236
 H        -4.402752         0.740481         0.722428
 H        -3.103383         2.832665        -0.328263
 H        -2.549547         2.465126         1.347102
 H        -1.228114         1.318565        -1.218175
 H        -0.440070         2.497403         0.055378
 H        -1.355403        -1.643872         0.344378
