19
Iteration:  2095
 O         0.726140         0.271097         0.777467
 C        -0.741256         0.617934         0.750431
 C        -1.275707         0.758558         2.162638
 C        -2.515682        -0.097425         1.732741
 C        -3.329318         0.687596         0.615102
 C        -2.701728         2.051479         0.244008
 C        -1.287689         1.837705        -0.167152
 O        -2.912133        -0.192513        -0.510379
 C        -1.800808        -0.545258         0.464102
 H         1.234573         1.052024         0.512592
 H        -0.665276         0.430272         3.019444
 H        -1.570179         1.836242         2.573594
 H        -3.031490        -0.867964         2.216381
 H        -4.365555         0.731073         0.895812
 H        -3.428299         2.731980        -0.281595
 H        -2.681188         2.431475         1.292553
 H        -1.123724         1.702392        -1.174035
 H        -0.673106         2.712753         0.179782
 H        -1.270602        -1.436144         0.304934
