19
Iteration:  2984
 O         0.547891         0.264930         0.570731
 C        -0.745328         0.670814         0.799388
 C        -1.383647         0.651906         2.209325
 C        -2.529292        -0.089395         1.695513
 C        -3.254061         0.747702         0.539984
 C        -2.665287         2.076041         0.201019
 C        -1.156196         1.908582         0.046789
 O        -2.881917        -0.258831        -0.394511
 C        -1.731863        -0.569472         0.452922
 H         1.068270         1.005399         0.615339
 H        -0.774612         0.243803         3.075968
 H        -1.623486         1.664433         2.711820
 H        -3.034751        -0.800305         2.276374
 H        -4.376135         0.722563         0.661489
 H        -3.067196         2.552055        -0.724281
 H        -2.829618         2.711832         1.072003
 H        -0.942672         1.938592        -1.052723
 H        -0.690256         2.918363         0.283168
 H        -1.177123        -1.501934         0.357865
