19
Iteration:  3477charge 0 multiplicity 1
 O         0.577536         0.345664         0.550758
 C        -0.789356         0.685653         0.774730
 C        -1.364578         0.596218         2.283244
 C        -2.596092        -0.119416         1.726626
 C        -3.254276         0.750250         0.561457
 C        -2.649477         2.131712         0.225281
 C        -1.210018         1.827487        -0.010160
 O        -2.843019        -0.209665        -0.435302
 C        -1.712720        -0.580201         0.489050
 H         1.185030         1.017047         0.436954
 H        -0.796385        -0.080417         2.968788
 H        -1.388648         1.565624         2.689204
 H        -3.230069        -0.829178         2.172459
 H        -4.334186         0.745363         0.870836
 H        -3.112932         2.429425        -0.718579
 H        -2.989510         2.993829         0.798749
 H        -0.650315         1.625076        -0.955284
 H        -0.666557         2.763313         0.344365
 H        -1.231180        -1.592294         0.379433
