19
Iteration:  1288
 O         0.556491         0.120252         0.536677
 C        -0.768083         0.633898         0.719085
 C        -1.310830         0.708316         2.216286
 C        -2.598281         0.011127         1.726579
 C        -3.319976         0.691408         0.540111
 C        -2.799926         2.075517         0.202339
 C        -1.226348         1.988083         0.154664
 O        -2.672281        -0.235177        -0.463996
 C        -1.744215        -0.533784         0.500780
 H         1.208400         0.858541         0.462323
 H        -0.733338         0.118249         2.883622
 H        -1.225438         1.637217         2.807715
 H        -3.080393        -0.807299         2.358638
 H        -4.388078         0.723593         0.489962
 H        -3.256123         2.444352        -0.758409
 H        -2.981750         2.874605         1.070625
 H        -0.841962         2.077522        -0.879715
 H        -0.749131         2.798021         0.744233
 H        -1.265407        -1.474598         0.372315
