19
Iteration:   813
 O         0.677501         0.318166         0.601464
 C        -0.768497         0.595711         0.814139
 C        -1.259475         0.624385         2.258184
 C        -2.618634         0.070098         1.721169
 C        -3.336645         0.719615         0.474791
 C        -2.731195         2.143724         0.243588
 C        -1.273581         1.810475        -0.081341
 O        -2.752765        -0.271363        -0.466361
 C        -1.761657        -0.532043         0.572610
 H         1.102020         1.252350         0.547051
 H        -0.880245        -0.266060         2.762388
 H        -1.231919         1.520315         2.935275
 H        -3.312317        -0.590780         2.385680
 H        -4.375054         0.668974         0.403699
 H        -3.313266         2.627957        -0.523042
 H        -2.811704         2.660483         1.186712
 H        -1.243888         1.360214        -1.033352
 H        -0.708796         2.688242         0.066065
 H        -1.395535        -1.539437         0.505675
