19
Iteration:  2525charge 0 multiplicity 1
 O         0.601760         0.283012         0.840883
 C        -0.751981         0.670048         0.645548
 C        -1.299915         0.685092         2.167602
 C        -2.468804         0.017485         1.673126
 C        -3.282907         0.671036         0.622021
 C        -2.712081         2.098795         0.332754
 C        -1.234968         1.895985        -0.147375
 O        -2.938204        -0.282045        -0.508977
 C        -1.707307        -0.544531         0.504963
 H         1.095741         0.372661        -0.024242
 H        -0.539881        -0.000055         2.601727
 H        -1.330410         1.631542         2.660738
 H        -2.948831        -0.750429         2.388676
 H        -4.345880         0.650239         0.793155
 H        -3.445474         2.633405        -0.241056
 H        -2.994178         2.740715         1.180180
 H        -1.186095         1.719670        -1.253477
 H        -0.572806         2.857175         0.184810
 H        -1.233288        -1.483232         0.258551
