19
Iteration:  1268charge 0 multiplicity 1
 O         0.569656         0.294369         0.515262
 C        -0.753473         0.669521         0.896295
 C        -1.320337         0.592712         2.350416
 C        -2.543213        -0.071733         1.716511
 C        -3.354688         0.745309         0.504981
 C        -2.697066         2.097154         0.205129
 C        -1.182540         1.874567         0.007002
 O        -2.808719        -0.213780        -0.493138
 C        -1.716014        -0.538837         0.486869
 H         1.154476         1.164498         0.382901
 H        -0.769098        -0.045147         2.997235
 H        -1.365233         1.505483         2.856694
 H        -3.279276        -0.684209         2.358062
 H        -4.465599         0.737005         0.507776
 H        -3.115753         2.399438        -0.834637
 H        -2.944817         2.807595         1.076230
 H        -1.020276         1.586624        -0.998431
 H        -0.526092         2.755299         0.237748
 H        -1.411940        -1.626678         0.490924
