19
Iteration:  2185
 O         0.567721         0.232616         0.577419
 C        -0.739345         0.671635         0.728060
 C        -1.193007         0.670851         2.260663
 C        -2.479511         0.023897         1.709462
 C        -3.375995         0.711534         0.584490
 C        -2.774816         2.059921         0.128033
 C        -1.184329         2.008058         0.106368
 O        -2.863886        -0.357413        -0.478297
 C        -1.781760        -0.546448         0.511673
 H         1.210872         0.901804         0.395823
 H        -0.700876        -0.045006         2.946918
 H        -1.218268         1.622072         2.897161
 H        -3.158255        -0.614930         2.385674
 H        -4.483198         0.735260         0.625696
 H        -3.054925         2.289742        -0.852947
 H        -3.041483         2.812716         0.853242
 H        -0.810808         2.246978        -0.868656
 H        -0.706475         2.671720         0.828154
 H        -1.333376        -1.509969         0.291090
