19
Iteration:  2234charge 0 multiplicity 1
 O         0.672762         0.434330         0.633521
 C        -0.727732         0.558412         0.829150
 C        -1.384316         0.727332         2.267355
 C        -2.533112        -0.069543         1.734619
 C        -3.327020         0.672160         0.591081
 C        -2.684029         2.058073         0.325944
 C        -1.211751         1.708313        -0.120355
 O        -2.859344        -0.105550        -0.517383
 C        -1.734229        -0.575953         0.491099
 H         0.814018         0.834298        -0.299250
 H        -0.760384         0.200626         2.994591
 H        -1.565559         1.672323         2.738308
 H        -3.089798        -0.822106         2.232200
 H        -4.442960         0.694871         0.595234
 H        -3.194505         2.735776        -0.458918
 H        -2.701128         2.605077         1.289754
 H        -1.146500         1.270769        -1.203783
 H        -0.510786         2.577119         0.002721
 H        -1.563670        -1.654027         0.267023
