19
Iteration:  4576
 O         0.706978         0.309196         0.698348
 C        -0.721475         0.636769         0.834390
 C        -1.209674         0.536494         2.270924
 C        -2.605932        -0.020006         1.696985
 C        -3.375179         0.776661         0.515318
 C        -2.805088         2.106764         0.165259
 C        -1.204419         1.885410         0.063269
 O        -2.824271        -0.216388        -0.471247
 C        -1.796250        -0.508724         0.431772
 H         1.253631         0.467846        -0.190420
 H        -0.701423        -0.373387         2.736838
 H        -1.138187         1.508797         2.889673
 H        -3.245764        -0.714488         2.319675
 H        -4.472185         0.671565         0.414664
 H        -3.283920         2.246304        -0.858192
 H        -3.094592         3.017251         0.804150
 H        -0.959944         1.804985        -0.965109
 H        -0.760733         2.796517         0.542704
 H        -1.477799        -1.551790         0.382424
