19
Iteration:  4009
 O         0.613555         0.274973         0.629021
 C        -0.747149         0.538247         0.811198
 C        -1.285691         0.690152         2.267153
 C        -2.600920         0.037831         1.731694
 C        -3.325852         0.724458         0.529996
 C        -2.790237         2.144989         0.253776
 C        -1.255710         1.903698         0.055049
 O        -2.684101        -0.190256        -0.497282
 C        -1.726241        -0.608644         0.468463
 H         0.599573        -0.118256        -0.348010
 H        -0.576365        -0.016826         2.715383
 H        -1.345698         1.632387         2.808864
 H        -3.308463        -0.544646         2.316313
 H        -4.472050         0.681020         0.451853
 H        -3.303333         2.461030        -0.632247
 H        -2.850076         2.791971         1.138751
 H        -1.271407         1.740784        -1.060345
 H        -0.636238         2.754286         0.250242
 H        -1.294650        -1.586627         0.288061
