19
Iteration:  2474
 O         0.637002         0.427589         0.500284
 C        -0.746034         0.561606         0.799919
 C        -1.250412         0.684340         2.287262
 C        -2.605391        -0.010847         1.659911
 C        -3.338785         0.757754         0.578125
 C        -2.663902         2.081651         0.239573
 C        -1.228218         1.828352         0.043543
 O        -2.719949        -0.257470        -0.475470
 C        -1.846712        -0.629411         0.586223
 H         0.699714         0.705083        -0.343356
 H        -0.779696         0.050066         3.096645
 H        -1.350859         1.691837         2.786459
 H        -3.231252        -0.743780         2.329709
 H        -4.471395         0.757479         0.573662
 H        -3.082770         2.462178        -0.707243
 H        -3.200390         2.798889         0.949843
 H        -1.012075         1.753174        -1.002637
 H        -0.753775         2.567842         0.524818
 H        -1.703111        -1.729021         0.498010
