19
Iteration:  4890
 O         0.691640         0.355032         0.732674
 C        -0.732308         0.575443         0.732833
 C        -1.283630         0.654367         2.287260
 C        -2.594054        -0.023927         1.660606
 C        -3.308060         0.738933         0.442063
 C        -2.721017         2.100667         0.324483
 C        -1.240468         1.844002         0.025081
 O        -2.818325        -0.226661        -0.490938
 C        -1.802470        -0.539634         0.437942
 H         0.992139         0.226208        -0.269349
 H        -0.672563         0.075329         2.966164
 H        -1.332711         1.685103         2.737693
 H        -3.329033        -0.565144         2.330370
 H        -4.400540         0.542030         0.487165
 H        -3.105415         2.741050        -0.522616
 H        -2.908424         2.606271         1.299519
 H        -1.128519         1.797208        -1.049293
 H        -0.635298         2.647303         0.310716
 H        -1.640569        -1.689379         0.359828
