19
Iteration:  3052
 O         0.534575         0.248342         0.553014
 C        -0.716318         0.614473         0.799182
 C        -1.332255         0.682706         2.226599
 C        -2.567193        -0.056635         1.705769
 C        -3.327971         0.701963         0.548686
 C        -2.673519         2.056508         0.250634
 C        -1.219467         1.963036         0.015866
 O        -2.772438        -0.239470        -0.475193
 C        -1.774400        -0.528713         0.533086
 H         1.290770         0.843974         0.920651
 H        -0.701384         0.121595         3.028590
 H        -1.569209         1.766997         2.500978
 H        -3.162409        -0.729939         2.237140
 H        -4.414821         0.695469         0.630771
 H        -3.169667         2.412205        -0.620197
 H        -2.927719         2.797316         1.062101
 H        -0.815673         1.711277        -0.993898
 H        -0.452335         2.816906         0.209320
 H        -1.318369        -1.467816         0.256211
