19
Iteration:  2902charge 0 multiplicity 1
 O         0.581497         0.396497         0.444805
 C        -0.723480         0.642286         0.856542
 C        -1.327189         0.645486         2.315528
 C        -2.651333        -0.029048         1.659127
 C        -3.313037         0.748336         0.499492
 C        -2.642701         2.022807         0.237019
 C        -1.105402         1.854806         0.057505
 O        -2.828507        -0.257735        -0.393762
 C        -1.818097        -0.605710         0.488561
 H         1.073697         1.199971         0.545372
 H        -0.798346        -0.092908         2.967310
 H        -1.421676         1.675268         2.851288
 H        -3.271724        -0.836150         2.239266
 H        -4.404917         0.709612         0.522860
 H        -3.070910         2.483456        -0.645727
 H        -2.849611         2.752274         1.054134
 H        -0.890443         1.651097        -0.982125
 H        -0.596620         2.732779         0.413535
 H        -1.221176        -1.529666         0.286251
