19
Iteration:  3880
 O         0.513305         0.271666         0.453066
 C        -0.766971         0.659923         0.813135
 C        -1.363470         0.738514         2.249290
 C        -2.570784        -0.006411         1.743665
 C        -3.293412         0.657895         0.503443
 C        -2.683746         2.071179         0.266501
 C        -1.175328         1.860469         0.123377
 O        -2.758348        -0.278083        -0.513095
 C        -1.742822        -0.566583         0.496718
 H         1.167252         0.715721         0.859939
 H        -0.852906         0.047241         3.017965
 H        -1.408595         1.775238         2.648230
 H        -3.268278        -0.460201         2.398214
 H        -4.318130         0.837307         0.531004
 H        -3.018887         2.861776        -0.551504
 H        -3.001007         2.721276         1.076191
 H        -0.902518         1.762646        -0.982703
 H        -0.471112         2.718734         0.469428
 H        -1.226519        -1.550374         0.567116
