19
Iteration:   517
 O         0.621750         0.395673         0.749563
 C        -0.729196         0.736878         0.807071
 C        -1.353033         0.642205         2.242818
 C        -2.542836        -0.124528         1.729740
 C        -3.257179         0.751331         0.519311
 C        -2.595550         2.103528         0.219538
 C        -1.120795         1.910832        -0.131293
 O        -2.947589        -0.339677        -0.413851
 C        -1.876997        -0.601683         0.473764
 H         1.108623         0.734418        -0.134920
 H        -0.827209        -0.078143         2.791922
 H        -1.598535         1.554712         2.735758
 H        -3.164839        -0.835991         2.415245
 H        -4.315692         0.922084         0.515935
 H        -3.051135         2.412095        -0.742832
 H        -2.787554         2.762511         0.986131
 H        -1.023254         1.581704        -1.259690
 H        -0.506569         2.787049         0.142345
 H        -1.293276        -1.444405         0.296278
