19
Iteration:  3455
 O         0.569712         0.314480         0.467323
 C        -0.790630         0.550550         0.826595
 C        -1.278381         0.634309         2.312831
 C        -2.575036        -0.004672         1.757610
 C        -3.316960         0.764553         0.467602
 C        -2.770656         2.091625         0.192888
 C        -1.117818         1.902895         0.102665
 O        -2.747062        -0.238766        -0.462316
 C        -1.799749        -0.598284         0.501557
 H         1.125165         1.186382         0.520310
 H        -0.856176        -0.165715         2.980347
 H        -1.374156         1.504291         2.902801
 H        -3.081290        -0.747072         2.301902
 H        -4.454837         0.733078         0.574407
 H        -3.214628         2.619184        -0.657591
 H        -3.160607         2.773427         0.987474
 H        -0.742797         1.802771        -0.985716
 H        -0.649814         2.924886         0.228424
 H        -1.338124        -1.623658         0.558890
