19
Iteration:  2531charge 0 multiplicity 1
 O         0.623419         0.299370         0.860842
 C        -0.763700         0.675015         0.668696
 C        -1.254181         0.676833         2.100633
 C        -2.493882        -0.024446         1.719318
 C        -3.287684         0.700884         0.609146
 C        -2.733363         2.107050         0.315848
 C        -1.240091         1.906612        -0.128027
 O        -2.940111        -0.276821        -0.481108
 C        -1.684927        -0.557452         0.448194
 H         1.017144         0.251817        -0.119601
 H        -0.728102        -0.095527         2.681108
 H        -1.510531         1.676600         2.594010
 H        -3.009761        -0.535007         2.495318
 H        -4.355031         0.596478         0.954338
 H        -3.345244         2.615691        -0.518755
 H        -2.901801         2.612451         1.305684
 H        -1.107018         1.848532        -1.225327
 H        -0.612220         2.749687         0.143098
 H        -1.263644        -1.579423         0.252569
