19
Iteration:  2258
 O         0.664079         0.486130         0.645234
 C        -0.764626         0.545686         0.727627
 C        -1.292659         0.651141         2.210611
 C        -2.594412        -0.035136         1.685971
 C        -3.355312         0.743526         0.570379
 C        -2.687206         2.147881         0.386371
 C        -1.247868         1.790721        -0.065194
 O        -2.766777        -0.243521        -0.476825
 C        -1.794307        -0.655955         0.522136
 H         0.944820         0.346791        -0.205500
 H        -0.762522         0.006766         2.874960
 H        -1.314726         1.601224         2.761801
 H        -3.252806        -0.537529         2.301299
 H        -4.426761         0.687564         0.491080
 H        -3.075694         2.689245        -0.590463
 H        -2.817242         2.839028         1.303305
 H        -1.274103         1.476161        -1.145926
 H        -0.573877         2.728938         0.028728
 H        -1.340733        -1.655309         0.473989
