19
Iteration:  2926charge 0 multiplicity 1
 O         0.635373         0.295792         0.605576
 C        -0.755928         0.607034         0.766264
 C        -1.257810         0.658411         2.294080
 C        -2.636170        -0.019233         1.694171
 C        -3.305752         0.779850         0.517945
 C        -2.762006         2.174577         0.337381
 C        -1.230857         1.848231        -0.078448
 O        -2.761100        -0.273511        -0.496389
 C        -1.775894        -0.607216         0.494763
 H         1.103368         1.234358         0.556610
 H        -0.691595        -0.205433         2.754085
 H        -1.269767         1.634561         2.914488
 H        -3.251931        -0.699785         2.375462
 H        -4.385749         0.510470         0.580790
 H        -3.219642         2.732797        -0.530618
 H        -2.853532         2.817742         1.203510
 H        -1.195868         1.586583        -1.133138
 H        -0.624422         2.670250         0.168249
 H        -1.281642        -1.625474         0.483854
