19
Iteration:  4278charge 0 multiplicity 1
 O         0.494964         0.219786         0.512687
 C        -0.800287         0.656834         0.781119
 C        -1.334197         0.694702         2.333516
 C        -2.523816        -0.095579         1.711350
 C        -3.244829         0.728312         0.612665
 C        -2.715352         2.139009         0.223672
 C        -1.215186         1.834276         0.046712
 O        -2.738005        -0.221262        -0.501806
 C        -1.723807        -0.528769         0.452312
 H         1.113308         1.095312         0.624510
 H        -0.573862         0.321331         2.998422
 H        -1.699600         1.618804         2.846534
 H        -3.212510        -0.726242         2.352134
 H        -4.335553         0.661163         0.538737
 H        -3.262262         2.505245        -0.739517
 H        -3.059845         2.939864         0.975243
 H        -1.056090         1.635375        -1.013603
 H        -0.452625         2.708903         0.317002
 H        -1.258890        -1.573257         0.423323
