19
Iteration:  1576
 O         0.543617         0.311719         0.420402
 C        -0.696616         0.614085         0.839630
 C        -1.371000         0.631516         2.292039
 C        -2.616425        -0.007850         1.649185
 C        -3.338204         0.742550         0.489612
 C        -2.653938         2.089064         0.215399
 C        -1.130228         1.957318         0.176917
 O        -2.764539        -0.315755        -0.448789
 C        -1.792675        -0.593801         0.556213
 H         1.084675         1.010690         0.220395
 H        -0.917908        -0.128775         2.957049
 H        -1.454049         1.672818         2.927010
 H        -3.187731        -0.659620         2.257548
 H        -4.415909         0.833687         0.586861
 H        -2.781702         2.450670        -0.837207
 H        -3.112282         2.708829         0.997078
 H        -0.985921         1.945130        -0.941086
 H        -0.581873         2.882855         0.593711
 H        -1.300462        -1.537971         0.497792
