19
Iteration:   271charge 0 multiplicity 1
 O         0.501981         0.292813         0.400467
 C        -0.787012         0.655568         0.863784
 C        -1.256732         0.616256         2.333614
 C        -2.609790         0.037696         1.717236
 C        -3.276627         0.673236         0.449303
 C        -2.655742         2.037639         0.029268
 C        -1.161762         1.994633         0.124880
 O        -2.768459        -0.285120        -0.395789
 C        -1.780689        -0.591534         0.595502
 H         0.908229         1.093632         0.545179
 H        -0.923526        -0.164115         3.122507
 H        -1.330118         1.505263         3.035219
 H        -3.268574        -0.514971         2.343487
 H        -4.356695         0.639784         0.583236
 H        -3.011129         2.433779        -0.902000
 H        -2.964050         2.849874         0.741135
 H        -0.576917         1.841978        -0.806639
 H        -0.909280         3.094421         0.676677
 H        -1.340825        -1.675659         0.651539
