19
Iteration:  1594
 O         0.607073         0.341679         0.409696
 C        -0.773896         0.535590         0.876602
 C        -1.277954         0.617188         2.342847
 C        -2.604682         0.043761         1.743161
 C        -3.283518         0.707036         0.416671
 C        -2.710276         2.116200         0.158082
 C        -1.184659         1.952561         0.201885
 O        -2.809033        -0.320173        -0.496065
 C        -1.800817        -0.559823         0.535949
 H         1.000421         1.131016         0.154787
 H        -0.764606        -0.074652         2.984616
 H        -1.271826         1.586228         2.767486
 H        -3.415524        -0.490645         2.342536
 H        -4.378390         0.738493         0.314899
 H        -3.038440         2.511294        -0.784679
 H        -2.865679         2.808202         1.039871
 H        -0.724289         1.780105        -0.745417
 H        -0.648039         2.607143         0.933007
 H        -1.410273        -1.581606         0.502725
