19
Iteration:  3030
 O         0.700282         0.286447         0.489517
 C        -0.754997         0.574002         0.786789
 C        -1.263002         0.653249         2.292485
 C        -2.606363         0.053053         1.700896
 C        -3.316077         0.744562         0.458282
 C        -2.838249         2.119534         0.171885
 C        -1.301702         1.793893         0.095990
 O        -2.755357        -0.195901        -0.457986
 C        -1.768059        -0.562158         0.544086
 H         1.248270         0.891727         0.968020
 H        -0.703559        -0.212233         2.838231
 H        -1.297101         1.495260         3.049700
 H        -3.237143        -0.354305         2.417263
 H        -4.344202         0.529523         0.649606
 H        -3.173277         2.402880        -0.792643
 H        -3.073845         2.892894         0.955770
 H        -0.740328         1.813874        -0.867112
 H        -0.509721         2.494350         0.592659
 H        -1.483368        -1.600789         0.505407
