19
Iteration:   496charge 0 multiplicity 1
 O         0.685675         0.496923         0.809327
 C        -0.711481         0.573535         0.806913
 C        -1.323474         0.661189         2.222706
 C        -2.583791         0.005406         1.622226
 C        -3.355511         0.753117         0.556105
 C        -2.628140         2.099556         0.285962
 C        -1.167454         1.715392        -0.179658
 O        -2.935222        -0.282851        -0.453713
 C        -1.796762        -0.603000         0.460372
 H         1.051064         1.078509         0.135183
 H        -0.711953        -0.032044         2.725825
 H        -1.385810         1.618690         2.686064
 H        -3.338328        -0.610190         2.245827
 H        -4.432096         0.719349         0.741969
 H        -3.139688         2.914068        -0.307143
 H        -2.546448         2.430427         1.250837
 H        -1.197760         1.328232        -1.316211
 H        -0.428903         2.539920        -0.065291
 H        -1.455826        -1.557601         0.361826
