19
Iteration:  2524charge 0 multiplicity 1
 O         0.597092         0.281587         0.836837
 C        -0.749152         0.668348         0.647278
 C        -1.302536         0.690117         2.177750
 C        -2.468733         0.012485         1.668963
 C        -3.285115         0.667559         0.621489
 C        -2.711048         2.094010         0.336900
 C        -1.235364         1.894340        -0.147057
 O        -2.934061        -0.281554        -0.508748
 C        -1.717250        -0.541616         0.507737
 H         1.142153         0.391862        -0.055382
 H        -0.512315         0.028758         2.607714
 H        -1.288845         1.649911         2.699088
 H        -2.930870        -0.747803         2.321433
 H        -4.360253         0.673284         0.751883
 H        -3.465030         2.639983        -0.249141
 H        -2.966823         2.758986         1.175349
 H        -1.203400         1.692302        -1.276461
 H        -0.552950         2.891460         0.194184
 H        -1.220517        -1.488970         0.269160
