19
Iteration:  4461charge 0 multiplicity 1
 O         0.607260         0.373539         0.640121
 C        -0.792828         0.621225         0.757336
 C        -1.368798         0.583772         2.295551
 C        -2.532040        -0.104605         1.721975
 C        -3.297954         0.767262         0.630308
 C        -2.663765         2.125202         0.132547
 C        -1.232225         1.893241         0.040895
 O        -2.784965        -0.173043        -0.476667
 C        -1.748127        -0.611048         0.458081
 H         0.885380         0.151689        -0.236697
 H        -0.700897        -0.082686         2.943856
 H        -1.506076         1.600328         2.838436
 H        -3.212588        -0.746532         2.391660
 H        -4.407305         0.883752         0.689827
 H        -3.168947         2.337906        -0.841993
 H        -2.865691         2.877809         0.916270
 H        -0.920490         1.719399        -1.053861
 H        -0.642262         2.764058         0.383373
 H        -1.363554        -1.693265         0.355460
