19
Iteration:   196
 O         0.615928         0.419551         0.891346
 C        -0.727717         0.672968         0.751853
 C        -1.348179         0.688125         2.240429
 C        -2.510011        -0.164591         1.619337
 C        -3.281805         0.756699         0.648842
 C        -2.653305         2.149171         0.281126
 C        -1.262258         1.795985        -0.242641
 O        -2.871319        -0.190841        -0.421209
 C        -1.748308        -0.584188         0.362571
 H         0.753643        -0.377517         0.234091
 H        -0.586230         0.007558         2.779040
 H        -1.565640         1.688432         2.681313
 H        -3.051124        -0.923013         2.140842
 H        -4.319098         0.814198         0.781606
 H        -3.331917         2.503514        -0.426617
 H        -2.635736         2.929524         1.207446
 H        -1.402662         1.328763        -1.173535
 H        -0.525407         2.563853        -0.499018
 H        -1.246235        -1.636860         0.263696
