19
Iteration:  1209charge 0 multiplicity 1
 O         0.659463         0.275933         0.780819
 C        -0.758912         0.648847         0.749264
 C        -1.321264         0.725087         2.205709
 C        -2.507177        -0.031941         1.652431
 C        -3.313313         0.703869         0.578309
 C        -2.741392         2.058306         0.358911
 C        -1.207725         1.826399        -0.122248
 O        -2.877423        -0.244762        -0.488781
 C        -1.756344        -0.558236         0.391835
 H         1.175615         1.018341         0.598547
 H        -0.525821         0.080636         2.646067
 H        -1.453099         1.830562         2.478906
 H        -3.257715        -0.447465         2.343950
 H        -4.366787         0.724206         0.792047
 H        -3.287199         2.665493        -0.341618
 H        -2.868635         2.809951         1.279684
 H        -1.134163         1.578760        -1.249804
 H        -0.498622         2.611229         0.126026
 H        -1.399841        -1.530725         0.322560
