19
Iteration:   780charge 0 multiplicity 1
 O         0.715199         0.440057         0.820009
 C        -0.744511         0.547332         0.748478
 C        -1.334543         0.733506         2.110375
 C        -2.582510        -0.102358         1.733702
 C        -3.302923         0.729598         0.624455
 C        -2.599826         2.062529         0.287305
 C        -1.203297         1.790683        -0.105208
 O        -2.946452        -0.233944        -0.470982
 C        -1.809665        -0.587148         0.410535
 H         0.964332         1.076390         0.226029
 H        -0.678672         0.355000         2.884643
 H        -1.580177         1.769357         2.447675
 H        -3.133660        -0.840990         2.458969
 H        -4.325247         0.796429         0.623534
 H        -3.247224         2.522043        -0.462004
 H        -2.621984         2.817515         1.068533
 H        -1.151356         1.475279        -1.101597
 H        -0.492291         2.516982        -0.102347
 H        -1.482812        -1.562293         0.102773
