19
Iteration:  1672charge 0 multiplicity 1
 O         0.626436         0.305865         0.659366
 C        -0.797447         0.633890         0.722835
 C        -1.344537         0.687987         2.170501
 C        -2.587405        -0.154329         1.714321
 C        -3.316896         0.707824         0.594003
 C        -2.599833         2.140023         0.403551
 C        -1.211162         1.905198        -0.123856
 O        -2.824608        -0.231801        -0.521057
 C        -1.773283        -0.612456         0.475545
 H         1.118666         1.020492         1.244448
 H        -0.928746         0.061544         2.954292
 H        -1.502066         1.802324         2.684076
 H        -3.236701        -0.661921         2.429838
 H        -4.392048         0.803337         0.518171
 H        -3.111944         2.646839        -0.426335
 H        -2.605028         2.815286         1.304869
 H        -1.302039         1.596690        -1.170663
 H        -0.498707         2.792341        -0.067585
 H        -1.180593        -1.451853         0.265134
