19
Iteration:  3075
 O         0.559379         0.186888         0.683098
 C        -0.749553         0.626182         0.756139
 C        -1.424840         0.809110         2.264174
 C        -2.473066        -0.104723         1.690336
 C        -3.346318         0.718017         0.630062
 C        -2.666308         2.102259         0.311529
 C        -1.179957         1.940423        -0.086654
 O        -2.836998        -0.286887        -0.493749
 C        -1.720006        -0.556821         0.396478
 H         1.171293         0.928278         0.708749
 H        -0.764105         0.092004         2.809253
 H        -1.594589         1.830234         2.689448
 H        -3.030971        -0.858850         2.245571
 H        -4.403102         0.768430         0.547892
 H        -3.223483         2.673161        -0.383450
 H        -2.735280         2.707108         1.261708
 H        -0.935038         1.806419        -1.179672
 H        -0.580608         2.945759         0.145262
 H        -1.122490        -1.401234         0.019809
