19
Iteration:  4246charge 0 multiplicity 1
 O         0.695659         0.265983         0.680612
 C        -0.639492         0.587944         0.676335
 C        -1.311866         0.708948         2.192467
 C        -2.629030         0.047531         1.659311
 C        -3.359486         0.687147         0.501341
 C        -2.789779         2.069749         0.389904
 C        -1.234813         1.852524        -0.007324
 O        -2.800118        -0.261876        -0.476546
 C        -1.783926        -0.512931         0.460231
 H         1.133177         0.968947         0.277962
 H        -0.687386        -0.010882         2.714460
 H        -1.519585         1.539182         2.877489
 H        -3.225708        -0.553148         2.406442
 H        -4.442287         0.739238         0.585479
 H        -3.207784         2.747998        -0.379152
 H        -2.635738         2.497618         1.388491
 H        -1.173725         1.807234        -1.099305
 H        -0.542376         2.751159         0.327471
 H        -1.421261        -1.533977         0.601666
