19
Iteration:   951charge 0 multiplicity 1
 O         0.617587         0.316225         0.652361
 C        -0.711655         0.647616         0.774236
 C        -1.326665         0.756130         2.226409
 C        -2.571507        -0.058490         1.719783
 C        -3.302924         0.660460         0.535563
 C        -2.694719         2.065642         0.304957
 C        -1.190976         1.857422        -0.061938
 O        -2.826809        -0.258345        -0.488514
 C        -1.811957        -0.560941         0.465696
 H         1.189729         1.010218         0.498543
 H        -0.792499         0.059971         2.840794
 H        -1.390530         1.751365         2.600481
 H        -3.162996        -0.721112         2.312006
 H        -4.407556         0.795497         0.664889
 H        -3.247628         2.720604        -0.468820
 H        -2.790791         2.641936         1.323680
 H        -1.156603         1.633388        -1.104726
 H        -0.574532         2.688246         0.225194
 H        -1.370626        -1.609560         0.345839
