19
Iteration:  2814charge 0 multiplicity 1
 O         0.661817         0.404272         0.511078
 C        -0.795442         0.556206         0.773552
 C        -1.390585         0.708498         2.265006
 C        -2.620732        -0.091014         1.725046
 C        -3.314243         0.724232         0.555180
 C        -2.640110         2.186055         0.356728
 C        -1.203040         1.761942        -0.071333
 O        -2.824122        -0.198204        -0.482493
 C        -1.701862        -0.638314         0.536421
 H         1.108385         1.062182         0.951328
 H        -0.944886        -0.027785         2.858035
 H        -1.621203         1.683381         2.588111
 H        -3.175348        -0.886816         2.345608
 H        -4.397239         0.730966         0.493945
 H        -3.090333         2.741548        -0.418075
 H        -2.745042         2.724199         1.310822
 H        -1.105536         1.503293        -1.103480
 H        -0.595158         2.563477         0.078502
 H        -1.219730        -1.566795         0.184175
