19
Iteration:   280charge 0 multiplicity 1
 O         0.495060         0.300256         0.437538
 C        -0.747738         0.674815         0.873875
 C        -1.314421         0.583782         2.366219
 C        -2.545440        -0.013605         1.737890
 C        -3.250849         0.754855         0.496240
 C        -2.701258         2.048053         0.013461
 C        -1.178728         1.970602         0.089945
 O        -2.785628        -0.293393        -0.428401
 C        -1.786608        -0.561300         0.594033
 H         1.201410         0.804312         0.742531
 H        -0.717231        -0.177164         2.932488
 H        -1.361057         1.568104         2.875062
 H        -3.267764        -0.603545         2.324502
 H        -4.404392         0.785065         0.602883
 H        -3.098293         2.308024        -1.042695
 H        -3.141219         2.738308         0.674780
 H        -0.775055         1.872264        -0.953772
 H        -0.648238         2.914863         0.546971
 H        -1.218125        -1.494718         0.524780
