19
Iteration:  3447charge 0 multiplicity 1
 O         0.591506         0.273502         0.476432
 C        -0.725459         0.624626         0.799681
 C        -1.281330         0.621277         2.305029
 C        -2.595808         0.062635         1.711916
 C        -3.303948         0.710493         0.457720
 C        -2.762927         2.067434         0.227629
 C        -1.201901         1.906626         0.085141
 O        -2.764015        -0.220163        -0.493267
 C        -1.779912        -0.573957         0.560817
 H         1.140042         1.090946         0.563509
 H        -0.869648        -0.189087         2.933159
 H        -1.139423         1.623293         2.744397
 H        -3.244993        -0.624288         2.303402
 H        -4.405237         0.623155         0.586260
 H        -3.190818         2.512247        -0.654733
 H        -3.111821         2.639134         1.139906
 H        -0.807756         1.655931        -0.902763
 H        -0.707888         2.744182         0.680529
 H        -1.462075        -1.644118         0.528880
