19
Iteration:  3072charge 0 multiplicity 1
 O         0.560442         0.179429         0.662339
 C        -0.775329         0.667561         0.761146
 C        -1.425881         0.808703         2.258494
 C        -2.484209        -0.122539         1.695220
 C        -3.314416         0.708356         0.625389
 C        -2.669605         2.093181         0.309939
 C        -1.139541         1.920823        -0.072816
 O        -2.846692        -0.276345        -0.479147
 C        -1.711497        -0.547954         0.397339
 H         1.111292         0.938835         0.731570
 H        -0.727251         0.042728         2.738708
 H        -1.675493         1.860378         2.643194
 H        -3.047755        -0.809410         2.221458
 H        -4.427292         0.797814         0.464870
 H        -3.217922         2.704291        -0.422438
 H        -2.793072         2.686661         1.253961
 H        -1.027967         1.803972        -1.192722
 H        -0.665330         2.902737         0.214379
 H        -1.082102        -1.410373         0.158579
