19
Iteration:  4711
 O         0.599838         0.249355         0.659232
 C        -0.713684         0.642574         0.808886
 C        -1.309576         0.710609         2.252595
 C        -2.554323        -0.054350         1.688595
 C        -3.390310         0.730804         0.531860
 C        -2.670355         2.065471         0.198087
 C        -1.124571         1.901895         0.127223
 O        -2.851697        -0.273344        -0.531046
 C        -1.745398        -0.488994         0.420760
 H         0.686254         0.640640        -0.303335
 H        -0.631180         0.068889         2.903786
 H        -1.606079         1.625040         2.800181
 H        -3.138500        -0.709874         2.369124
 H        -4.472314         0.702678         0.770546
 H        -3.147746         2.455805        -0.721136
 H        -3.089523         2.623876         1.091911
 H        -0.838922         2.046891        -0.826504
 H        -0.588465         2.636258         0.754901
 H        -1.418404        -1.490390         0.210166
