19
Iteration:   482
 O         0.726151         0.471592         0.831466
 C        -0.736546         0.540065         0.718438
 C        -1.296714         0.676767         2.115544
 C        -2.589375         0.012792         1.698112
 C        -3.359910         0.758529         0.518339
 C        -2.677514         2.068160         0.347486
 C        -1.288114         1.615738        -0.107601
 O        -2.809007        -0.163484        -0.475558
 C        -1.826002        -0.602823         0.493062
 H         1.063852         1.056956         0.038508
 H        -0.946810         0.033223         2.970706
 H        -1.184886         1.644223         2.658077
 H        -3.065974        -0.605844         2.466465
 H        -4.412037         0.834311         0.401024
 H        -3.162851         2.576327        -0.451137
 H        -2.684353         2.832278         1.156978
 H        -1.240924         1.325080        -1.144733
 H        -0.631990         2.574907        -0.090974
 H        -1.492391        -1.714594         0.344986
