19
Iteration:  4960
 O         0.721125         0.369967         0.645349
 C        -0.759439         0.585556         0.781987
 C        -1.404251         0.634040         2.217949
 C        -2.590816         0.007505         1.626421
 C        -3.346826         0.699796         0.537344
 C        -2.675483         2.111872         0.338043
 C        -1.114655         1.884101         0.027828
 O        -2.829466        -0.248903        -0.467176
 C        -1.824433        -0.595502         0.484551
 H         0.959286         0.538213        -0.354218
 H        -0.918334        -0.055307         2.938867
 H        -1.526153         1.562966         2.701195
 H        -3.167288        -0.764555         2.139213
 H        -4.438143         0.695489         0.447989
 H        -3.219710         2.545740        -0.483040
 H        -2.842567         2.804451         1.185319
 H        -0.854785         2.005352        -1.068439
 H        -0.556091         2.757308         0.511556
 H        -1.484397        -1.639776         0.403168
