19
Iteration:  4166
 O         0.719962         0.275164         0.670300
 C        -0.767662         0.637577         0.811100
 C        -1.228992         0.684432         2.301622
 C        -2.537840         0.008569         1.680698
 C        -3.335304         0.688214         0.465002
 C        -2.791667         2.074005         0.231968
 C        -1.262623         1.902418         0.082944
 O        -2.846275        -0.219677        -0.503462
 C        -1.774695        -0.540818         0.388993
 H         0.790989        -0.222439        -0.071842
 H        -0.664250        -0.102925         2.833963
 H        -1.335058         1.673783         2.728179
 H        -3.004800        -0.643256         2.449328
 H        -4.407751         0.785915         0.515204
 H        -3.437781         2.788124        -0.465950
 H        -2.970175         2.703988         1.117702
 H        -1.017536         1.854308        -1.016446
 H        -0.629402         2.732985         0.588557
 H        -1.291155        -1.593364         0.540072
