19
Iteration:  2157charge 0 multiplicity 1
 O         0.606803         0.303302         0.326666
 C        -0.751568         0.585908         0.806959
 C        -1.341103         0.686247         2.309043
 C        -2.579225        -0.043131         1.753870
 C        -3.364474         0.673337         0.532766
 C        -2.756177         2.084029         0.105262
 C        -1.166328         1.890123         0.153119
 O        -2.768825        -0.189047        -0.394889
 C        -1.737048        -0.569665         0.631393
 H         1.245616         1.058080         0.543246
 H        -0.943159         0.000700         3.105281
 H        -1.470148         1.684068         2.669444
 H        -3.225418        -0.674828         2.386773
 H        -4.483240         0.647994         0.495245
 H        -2.924076         2.223965        -1.025976
 H        -3.067234         2.925589         0.759158
 H        -0.749162         1.906002        -0.934628
 H        -0.489660         2.617990         0.630974
 H        -1.327694        -1.587082         0.387117
