19
Iteration:  4832
 O         0.656452         0.220712         0.659624
 C        -0.714778         0.632083         0.894495
 C        -1.292487         0.610341         2.282829
 C        -2.541077        -0.027220         1.650524
 C        -3.365535         0.728644         0.542868
 C        -2.770427         2.125490         0.191358
 C        -1.244317         1.864838         0.066483
 O        -2.807089        -0.214210        -0.516453
 C        -1.726225        -0.463888         0.428371
 H         0.912626         0.543435        -0.184457
 H        -0.799202        -0.233400         2.861078
 H        -1.198802         1.599929         2.829999
 H        -3.134295        -0.600487         2.345073
 H        -4.467593         0.599808         0.548699
 H        -3.124975         2.554643        -0.771674
 H        -2.967820         2.929954         0.983589
 H        -1.046839         1.827075        -0.982834
 H        -0.803304         2.846844         0.425964
 H        -1.474174        -1.502490         0.411713
