19
Iteration:  1736charge 0 multiplicity 1
 O         0.528008         0.217573         0.451475
 C        -0.776240         0.669513         0.787463
 C        -1.363605         0.587139         2.272541
 C        -2.562972        -0.089552         1.693048
 C        -3.259528         0.705641         0.545882
 C        -2.661777         2.126438         0.079069
 C        -1.171004         2.042947         0.172748
 O        -2.843865        -0.240715        -0.439324
 C        -1.710178        -0.572388         0.542973
 H         1.026518         0.987879         0.790511
 H        -0.746389        -0.017253         2.880229
 H        -1.446298         1.576538         2.814430
 H        -3.104994        -0.723017         2.420779
 H        -4.351962         0.743597         0.699685
 H        -3.066390         2.196932        -0.865191
 H        -2.962153         2.867102         0.823248
 H        -0.708911         2.084146        -0.724068
 H        -0.895621         2.701476         0.890548
 H        -1.007546        -1.374999         0.378258
