19
Iteration:  4795charge 0 multiplicity 1
 O         0.675748         0.409824         0.790333
 C        -0.663004         0.603098         0.759795
 C        -1.356423         0.611795         2.172264
 C        -2.588816        -0.110379         1.682088
 C        -3.313156         0.719090         0.599613
 C        -2.618630         2.182910         0.239288
 C        -1.206271         1.915731        -0.053151
 O        -2.887577        -0.229887        -0.463536
 C        -1.862346        -0.663536         0.388881
 H         0.893540         0.553117        -0.068761
 H        -0.690247        -0.021589         2.828186
 H        -1.636829         1.523539         2.744280
 H        -3.220706        -0.883856         2.220082
 H        -4.418192         0.830935         0.732888
 H        -3.204857         2.693427        -0.539122
 H        -2.681737         2.838050         1.105557
 H        -0.621299         1.855683        -1.106736
 H        -0.590325         2.638509         0.631988
 H        -1.512917        -1.694314         0.199331
