19
Iteration:   538charge 0 multiplicity 1
 O         0.609923         0.278045         0.710777
 C        -0.785128         0.602445         0.730780
 C        -1.266281         0.728975         2.248358
 C        -2.535196        -0.002401         1.702511
 C        -3.353972         0.714968         0.601687
 C        -2.759597         2.045684         0.091052
 C        -1.184334         1.920843         0.075801
 O        -2.823336        -0.223344        -0.443236
 C        -1.715750        -0.560962         0.456847
 H         0.891289         0.188129        -0.162554
 H        -0.747143         0.007599         2.849015
 H        -1.391428         1.749461         2.593416
 H        -3.161589        -0.728625         2.332452
 H        -4.404854         0.767639         0.663692
 H        -3.127782         2.209780        -0.928147
 H        -2.871034         2.886674         0.734905
 H        -0.791652         1.780331        -0.908168
 H        -0.787939         2.768183         0.655252
 H        -1.366263        -1.581846         0.449251
