19
Iteration:  2947
 O         0.607144         0.214139         0.714340
 C        -0.741687         0.619100         0.736436
 C        -1.277756         0.717091         2.144827
 C        -2.509930        -0.036087         1.701940
 C        -3.342221         0.694290         0.540166
 C        -2.748689         2.026127         0.318144
 C        -1.286394         1.836875        -0.040384
 O        -2.779577        -0.113257        -0.484793
 C        -1.726103        -0.517533         0.458837
 H         1.202122         0.916612         0.548996
 H        -0.744779         0.044327         2.888353
 H        -1.419366         1.809447         2.536886
 H        -3.057191        -0.621438         2.585179
 H        -4.497695         0.636354         0.589143
 H        -3.243383         2.667948        -0.462585
 H        -2.878177         2.576198         1.264445
 H        -1.187231         1.477105        -1.056494
 H        -0.767142         2.722057         0.190541
 H        -1.428503        -1.607272         0.358619
