19
Iteration:   669
 O         0.616404         0.311094         0.691836
 C        -0.760152         0.674619         0.798110
 C        -1.316596         0.692225         2.239435
 C        -2.558529        -0.056857         1.675560
 C        -3.291273         0.743182         0.549191
 C        -2.717397         2.046538         0.148316
 C        -1.177727         1.872350        -0.069793
 O        -2.836813        -0.285328        -0.423712
 C        -1.784602        -0.545238         0.552849
 H         1.040452         0.715835        -0.172113
 H        -0.784743        -0.000327         2.933629
 H        -1.463632         1.647231         2.825256
 H        -3.266961        -0.709638         2.248201
 H        -4.323872         0.842602         0.722943
 H        -3.289866         2.581139        -0.654034
 H        -2.746318         2.746857         1.068051
 H        -0.975716         1.648843        -1.102729
 H        -0.607276         2.775288         0.149498
 H        -1.157695        -1.470315         0.410464
