19
Iteration:  1579
 O         0.553637         0.310679         0.407036
 C        -0.720850         0.629195         0.843563
 C        -1.349055         0.629634         2.298417
 C        -2.610200        -0.005626         1.655926
 C        -3.312840         0.758359         0.460705
 C        -2.663214         2.090018         0.209714
 C        -1.101603         1.925684         0.216130
 O        -2.775171        -0.325571        -0.458095
 C        -1.821270        -0.585107         0.559305
 H         1.016522         1.186246         0.191326
 H        -0.906777        -0.161448         3.009407
 H        -1.451173         1.771700         2.998889
 H        -3.178068        -0.663598         2.292404
 H        -4.430392         0.808822         0.571277
 H        -2.863487         2.471876        -0.836926
 H        -3.236182         2.644455         0.949273
 H        -0.951338         1.972394        -0.878158
 H        -0.613264         2.800767         0.508486
 H        -1.268247        -1.591127         0.517956
