19
Iteration:  3746charge 0 multiplicity 1
 O         0.627250         0.304597         0.663996
 C        -0.730734         0.560341         0.771828
 C        -1.277960         0.605979         2.237932
 C        -2.505279        -0.017510         1.694406
 C        -3.324029         0.738012         0.552054
 C        -2.813485         2.108562         0.163499
 C        -1.227220         1.975626         0.048886
 O        -2.792150        -0.196269        -0.419293
 C        -1.748595        -0.560642         0.481029
 H         0.806977        -0.321677         0.040001
 H        -0.933485        -0.154504         2.955927
 H        -1.378789         1.612909         2.654422
 H        -3.167511        -0.809204         2.181197
 H        -4.412933         0.816768         0.674348
 H        -3.285532         2.182840        -0.847667
 H        -3.079817         2.899224         0.904526
 H        -0.858151         1.922892        -1.029310
 H        -0.740214         2.945752         0.377444
 H        -1.156748        -1.431993         0.223126
