19
Iteration:  3574
 O         0.582137         0.300541         0.471816
 C        -0.686620         0.632233         0.823087
 C        -1.343667         0.609787         2.333756
 C        -2.559540         0.023625         1.709765
 C        -3.314523         0.784153         0.596765
 C        -2.712455         2.128534         0.155465
 C        -1.233907         1.840069         0.083120
 O        -2.786738        -0.275727        -0.473945
 C        -1.773419        -0.599036         0.508970
 H         1.062204         1.085032         0.580195
 H        -0.862152        -0.152779         3.043224
 H        -1.422695         1.542177         2.921404
 H        -3.142453        -0.608285         2.317462
 H        -4.370950         0.570873         0.394942
 H        -3.161251         2.515566        -0.851956
 H        -2.937191         2.949422         0.881974
 H        -0.846921         1.842667        -0.987684
 H        -0.641954         2.726739         0.356637
 H        -1.290419        -1.589962         0.282273
