19
Iteration:  4544
 O         0.603927         0.434134         0.667713
 C        -0.771589         0.610803         0.791979
 C        -1.294844         0.552079         2.331896
 C        -2.621506        -0.081189         1.673092
 C        -3.267704         0.760247         0.576459
 C        -2.700557         2.087823         0.209505
 C        -1.162316         1.805152        -0.018242
 O        -2.809977        -0.200647        -0.478649
 C        -1.807842        -0.545958         0.434854
 H         0.900124         0.807638        -0.114903
 H        -0.745070        -0.280498         2.847883
 H        -1.225363         1.535912         2.846817
 H        -3.274014        -0.559607         2.395940
 H        -4.370255         0.827036         0.507359
 H        -3.242461         2.356512        -0.726706
 H        -2.827213         2.990638         0.874450
 H        -0.779359         1.639075        -1.001870
 H        -0.515069         2.549826         0.503420
 H        -1.485579        -1.551874         0.290096
