19
Iteration:  3531
 O         0.633237         0.244004         0.662049
 C        -0.774733         0.600956         0.721954
 C        -1.341298         0.714901         2.211835
 C        -2.523176        -0.001534         1.653212
 C        -3.366034         0.698229         0.541535
 C        -2.693751         2.118263         0.387330
 C        -1.276435         1.877629        -0.051024
 O        -2.745449        -0.235120        -0.472633
 C        -1.750625        -0.573621         0.438225
 H         1.201475         0.931590         0.440476
 H        -0.868419         0.039003         2.984240
 H        -1.436445         1.669913         2.691745
 H        -3.177076        -0.468064         2.323189
 H        -4.449834         0.649542         0.832402
 H        -3.233457         2.651049        -0.454688
 H        -2.782355         2.653906         1.348888
 H        -1.031167         1.730174        -1.122823
 H        -0.615369         2.752816         0.086835
 H        -1.473170        -1.659842         0.436231
