19
Iteration:  3582
 O         0.666374         0.280211         0.509098
 C        -0.726927         0.572467         0.799761
 C        -1.285185         0.656632         2.255859
 C        -2.594408        -0.029601         1.777500
 C        -3.334247         0.792444         0.547159
 C        -2.790414         2.149995         0.148445
 C        -1.210902         1.895551         0.091773
 O        -2.806424        -0.283079        -0.506887
 C        -1.765939        -0.573680         0.516505
 H         1.210334         1.080259         0.678979
 H        -0.783648        -0.192309         2.760367
 H        -1.281177         1.526333         2.991298
 H        -3.318060        -0.442395         2.551131
 H        -4.409019         0.776349         0.503373
 H        -3.364481         2.226355        -0.793202
 H        -3.007746         2.821158         0.970835
 H        -0.668798         1.798912        -0.867851
 H        -0.668392         2.749364         0.571801
 H        -1.347768        -1.552767         0.383750
