19
Iteration:  2693charge 0 multiplicity 1
 O         0.680191         0.325310         0.581492
 C        -0.755889         0.624213         0.746514
 C        -1.276327         0.609989         2.295639
 C        -2.591890         0.023811         1.747170
 C        -3.357198         0.789077         0.448664
 C        -2.791116         2.085009         0.299090
 C        -1.218424         1.819367        -0.035937
 O        -2.743146        -0.290766        -0.459108
 C        -1.818841        -0.535882         0.491794
 H         1.277873         1.200833         0.695907
 H        -0.823732        -0.255413         2.727064
 H        -1.224178         1.520175         2.870956
 H        -3.151392        -0.552941         2.651866
 H        -4.443384         0.628745         0.494546
 H        -3.299943         2.764456        -0.403474
 H        -2.801424         2.689529         1.222514
 H        -1.232092         1.459591        -1.091609
 H        -0.538350         2.876212         0.041697
 H        -1.414505        -1.559133         0.350224
