19
Iteration:  2906charge 0 multiplicity 1
 O         0.584517         0.388058         0.450371
 C        -0.698879         0.654927         0.862928
 C        -1.340672         0.619406         2.312759
 C        -2.634904        -0.027783         1.689959
 C        -3.313640         0.733345         0.485907
 C        -2.626562         2.043760         0.226499
 C        -1.153154         1.857554         0.062322
 O        -2.824675        -0.257548        -0.406956
 C        -1.824784        -0.604850         0.509445
 H         1.038480         1.274453         0.581933
 H        -0.820792        -0.195090         2.817165
 H        -1.525352         1.615860         2.676575
 H        -3.188730        -0.735448         2.222766
 H        -4.429599         0.792429         0.538690
 H        -3.141825         2.555937        -0.645442
 H        -2.733209         2.684287         1.080939
 H        -0.990420         1.698862        -1.019130
 H        -0.445780         2.693401         0.300962
 H        -1.187949        -1.476910         0.389282
