19
Iteration:  3166
 O         0.578238         0.179807         0.558652
 C        -0.738935         0.636211         0.764457
 C        -1.319914         0.670795         2.199304
 C        -2.607080        -0.003421         1.692951
 C        -3.341807         0.707553         0.494929
 C        -2.749913         2.039134         0.229219
 C        -1.123715         1.964151         0.157579
 O        -2.778972        -0.271039        -0.489361
 C        -1.742566        -0.476296         0.517584
 H         1.129993         1.052323         0.494162
 H        -0.740059         0.043204         2.844989
 H        -1.420141         1.707153         2.523484
 H        -3.223540        -0.778838         2.338289
 H        -4.388049         0.721784         0.789178
 H        -3.396216         2.434380        -0.602735
 H        -2.889202         2.752233         1.015881
 H        -0.813494         1.974173        -0.925449
 H        -0.678289         2.885789         0.753952
 H        -1.258577        -1.483918         0.418910
