19
Iteration:  1119charge 0 multiplicity 1
 O         0.659057         0.312213         0.552953
 C        -0.758650         0.669955         0.784952
 C        -1.303852         0.651026         2.280645
 C        -2.557343         0.018845         1.658244
 C        -3.353631         0.709120         0.525777
 C        -2.686345         2.030078         0.176540
 C        -1.177807         1.916637         0.011976
 O        -2.865267        -0.326240        -0.401648
 C        -1.785991        -0.528844         0.489203
 H         1.141760         0.974176         1.034763
 H        -0.734805        -0.204881         2.822738
 H        -1.171686         1.621221         2.904040
 H        -3.116290        -0.503114         2.344560
 H        -4.447966         0.678418         0.667958
 H        -3.205045         2.435141        -0.681322
 H        -3.055287         2.911721         0.963539
 H        -0.805046         1.773449        -1.025552
 H        -0.753620         2.824024         0.443364
 H        -1.446354        -1.577640         0.408156
