19
Iteration:  3294charge 0 multiplicity 1
 O         0.515596         0.138238         0.534669
 C        -0.725513         0.661509         0.812940
 C        -1.325853         0.690189         2.255804
 C        -2.541736        -0.100037         1.681524
 C        -3.373838         0.727506         0.535696
 C        -2.722494         2.085271         0.226270
 C        -1.218862         1.962728         0.083964
 O        -2.764824        -0.175125        -0.497062
 C        -1.657389        -0.518323         0.510114
 H         1.233344         0.830937         0.379333
 H        -0.764576         0.139190         3.086347
 H        -1.472895         1.650656         2.911468
 H        -3.148246        -0.777562         2.320411
 H        -4.477838         0.650059         0.592719
 H        -3.196662         2.292333        -0.740000
 H        -3.195924         2.743945         1.043871
 H        -0.958654         2.012456        -0.971546
 H        -0.575405         2.737947         0.395333
 H        -1.045021        -1.485362         0.536402
