19
Iteration:  2879charge 0 multiplicity 1
 O         0.627256         0.244590         0.539168
 C        -0.709207         0.596205         0.779052
 C        -1.315200         0.656334         2.229574
 C        -2.537408        -0.014483         1.721494
 C        -3.323883         0.719338         0.567621
 C        -2.741641         2.076955         0.160879
 C        -1.206847         1.931379         0.141438
 O        -2.835699        -0.223492        -0.496308
 C        -1.794509        -0.572481         0.492525
 H         1.117469         1.128038         0.567583
 H        -0.677456         0.090759         2.975582
 H        -1.502024         1.723752         2.643215
 H        -3.020664        -0.800053         2.453352
 H        -4.404385         0.648990         0.709997
 H        -3.153175         2.341135        -0.785180
 H        -2.991706         2.940395         0.846883
 H        -0.979160         1.997572        -0.922531
 H        -0.684651         2.690462         0.719659
 H        -1.202653        -1.509399         0.426010
