19
Iteration:  4264charge 0 multiplicity 1
 O         0.565802         0.226633         0.591259
 C        -0.816260         0.635638         0.808955
 C        -1.298267         0.730120         2.207880
 C        -2.550158        -0.086429         1.733668
 C        -3.331546         0.704957         0.506293
 C        -2.699157         2.085794         0.312229
 C        -1.216457         1.927846        -0.027249
 O        -2.731857        -0.196898        -0.483612
 C        -1.761123        -0.587079         0.539543
 H         1.120076         0.929529         0.423171
 H        -0.843629        -0.062877         2.823712
 H        -1.272108         1.785896         2.554934
 H        -3.178662        -0.757218         2.351285
 H        -4.440034         0.636952         0.544425
 H        -3.223331         2.661005        -0.548680
 H        -2.844436         2.673249         1.237140
 H        -1.049386         1.733210        -1.096878
 H        -0.702761         2.842389         0.278685
 H        -1.209409        -1.537311         0.172604
