19
Iteration:  2588
 O         0.601294         0.375611         0.512411
 C        -0.801593         0.601962         0.822275
 C        -1.250602         0.622135         2.273597
 C        -2.607690        -0.000149         1.759642
 C        -3.313057         0.754787         0.444142
 C        -2.751874         2.106956         0.221704
 C        -1.203013         1.883009         0.029064
 O        -2.712917        -0.261925        -0.420274
 C        -1.779385        -0.591123         0.570149
 H         0.632075         0.522178        -0.450815
 H        -0.786298        -0.122255         2.976570
 H        -1.366570         1.448149         3.031001
 H        -3.118088        -0.696901         2.292665
 H        -4.408784         0.767107         0.543184
 H        -3.007671         2.514686        -0.824556
 H        -3.050729         2.771332         1.073097
 H        -1.067796         1.733468        -1.073138
 H        -0.521655         2.673608         0.493878
 H        -1.404140        -1.642705         0.456955
