19
Iteration:  4154charge 0 multiplicity 1
 O         0.644429         0.276139         0.661073
 C        -0.687192         0.589000         0.772069
 C        -1.254030         0.748954         2.201885
 C        -2.583639         0.018327         1.691548
 C        -3.380838         0.715944         0.529958
 C        -2.762860         2.093349         0.352320
 C        -1.223261         1.922677         0.086305
 O        -2.815234        -0.291629        -0.594003
 C        -1.728229        -0.534560         0.496908
 H         0.771181        -0.172632        -0.284442
 H        -0.767180         0.086984         2.973057
 H        -1.269735         1.724860         2.701400
 H        -3.264711        -0.583206         2.287595
 H        -4.468054         0.557650         0.487698
 H        -3.265061         2.603206        -0.570947
 H        -2.866058         2.562043         1.334908
 H        -0.864411         1.959033        -0.988180
 H        -0.775269         2.811659         0.576253
 H        -1.429608        -1.629045         0.275221
