19
Iteration:  1217
 O         0.672756         0.331980         0.815612
 C        -0.738261         0.617396         0.712145
 C        -1.268398         0.740643         2.111904
 C        -2.513293        -0.058607         1.687346
 C        -3.310281         0.735142         0.573955
 C        -2.690020         2.082307         0.356000
 C        -1.228066         1.802428        -0.115354
 O        -2.859347        -0.235102        -0.489201
 C        -1.889450        -0.602137         0.420332
 H         1.086094         1.196967         0.696741
 H        -0.697763         0.163161         2.898958
 H        -1.321613         1.653929         2.775831
 H        -3.190996        -0.600849         2.259738
 H        -4.419129         0.619622         0.687349
 H        -3.187912         2.650054        -0.406215
 H        -2.759286         2.554097         1.291368
 H        -1.280753         1.623117        -1.202249
 H        -0.591760         2.682689         0.057499
 H        -1.374059        -1.587506         0.200636
