19
Iteration:  1547
 O         0.592314         0.188253         0.650749
 C        -0.734668         0.595202         0.769985
 C        -1.291902         0.701304         2.234515
 C        -2.514466        -0.078553         1.722509
 C        -3.326494         0.720969         0.545208
 C        -2.811370         2.089325         0.257826
 C        -1.207659         1.901934        -0.015252
 O        -2.754748        -0.142157        -0.511418
 C        -1.800875        -0.539164         0.457591
 H         1.260563         0.879342         0.960474
 H        -0.588900         0.097709         2.849855
 H        -1.439515         1.694021         2.728610
 H        -3.102803        -0.742101         2.361701
 H        -4.434395         0.696944         0.716951
 H        -3.131084         2.602950        -0.671608
 H        -3.065914         2.653572         1.164471
 H        -1.129296         1.776006        -1.105769
 H        -0.669543         2.715352         0.364230
 H        -1.227904        -1.492377         0.166638
