19
Iteration:   347
 O         0.594737         0.412022         0.654281
 C        -0.753420         0.627310         0.770705
 C        -1.385378         0.675292         2.140083
 C        -2.588464        -0.072049         1.645032
 C        -3.336070         0.748515         0.552026
 C        -2.612090         2.171607         0.349804
 C        -1.222548         1.787151        -0.147675
 O        -2.820403        -0.285041        -0.425296
 C        -1.685160        -0.578624         0.498332
 H         1.123300         0.363496         1.566353
 H        -0.864433         0.016094         2.919173
 H        -1.488704         1.683642         2.658749
 H        -3.127470        -0.730211         2.279029
 H        -4.462685         0.797701         0.571726
 H        -3.108525         2.877074        -0.364820
 H        -2.637896         2.703627         1.316171
 H        -1.425395         1.349169        -1.105790
 H        -0.418814         2.613874        -0.199400
 H        -1.357374        -1.697844         0.426404
