19
Iteration:  1308charge 0 multiplicity 1
 O         0.581777         0.112615         0.539258
 C        -0.685369         0.611921         0.792612
 C        -1.241307         0.778311         2.188607
 C        -2.536863         0.019793         1.634159
 C        -3.285350         0.642297         0.490740
 C        -2.836748         2.056418         0.287011
 C        -1.190910         2.022568         0.175805
 O        -2.810718        -0.245822        -0.536715
 C        -1.779326        -0.582039         0.517838
 H         1.189870         0.706654         0.846926
 H        -0.737671         0.246492         3.052342
 H        -1.557564         1.809650         2.693779
 H        -3.221322        -0.333305         2.410245
 H        -4.355294         0.530401         0.648909
 H        -3.136859         2.457412        -0.623740
 H        -3.298497         2.790375         0.997250
 H        -0.875291         2.277085        -0.897434
 H        -0.794800         2.837766         0.791096
 H        -1.253365        -1.480735         0.424402
