19
Iteration:  4249charge 0 multiplicity 1
 O         0.671148         0.250010         0.672664
 C        -0.652163         0.620728         0.681733
 C        -1.315079         0.689533         2.187755
 C        -2.634199         0.045064         1.662483
 C        -3.358119         0.673793         0.503970
 C        -2.780097         2.063954         0.381165
 C        -1.229482         1.870153        -0.017057
 O        -2.788211        -0.238360        -0.460779
 C        -1.769646        -0.536657         0.461603
 H         1.165904         0.998855         0.281401
 H        -0.629204         0.054355         2.799939
 H        -1.472832         1.554517         2.863046
 H        -3.148047        -0.504673         2.421403
 H        -4.487815         0.747500         0.435674
 H        -3.247011         2.695368        -0.315423
 H        -2.659791         2.478776         1.386306
 H        -1.103797         1.828999        -1.111924
 H        -0.602944         2.671461         0.316627
 H        -1.451566        -1.520598         0.626296
