19
Iteration:  2929
 O         0.629561         0.286985         0.626120
 C        -0.738387         0.607333         0.771797
 C        -1.236566         0.678793         2.301232
 C        -2.641396        -0.008004         1.684539
 C        -3.316197         0.778581         0.518472
 C        -2.777827         2.161855         0.347494
 C        -1.245494         1.839556        -0.085413
 O        -2.745540        -0.258771        -0.481820
 C        -1.789850        -0.628586         0.475616
 H         1.029717         1.133685         0.567103
 H        -0.685607        -0.179562         2.678917
 H        -1.238788         1.620214         2.819986
 H        -3.199063        -0.676149         2.237062
 H        -4.374093         0.511393         0.577023
 H        -3.268515         2.685603        -0.511463
 H        -2.814914         2.816423         1.203743
 H        -1.232202         1.659117        -1.180318
 H        -0.552314         2.698646         0.157807
 H        -1.235927        -1.562995         0.414047
