19
Iteration:  3736charge 0 multiplicity 1
 O         0.610836         0.323669         0.653270
 C        -0.758075         0.641258         0.834083
 C        -1.297563         0.588413         2.276164
 C        -2.511342        -0.092726         1.708454
 C        -3.271518         0.771333         0.634434
 C        -2.766634         2.122686         0.106720
 C        -1.206707         1.956310         0.032958
 O        -2.828638        -0.238302        -0.464134
 C        -1.733009        -0.564065         0.394980
 H         0.615657        -0.205926        -0.081089
 H        -0.545512         0.100948         2.950360
 H        -1.471238         1.605792         2.675106
 H        -3.156544        -0.672932         2.428023
 H        -4.317952         0.623337         0.667506
 H        -3.328973         2.368753        -0.844367
 H        -3.213568         2.948886         0.666935
 H        -0.736328         1.988945        -0.985305
 H        -0.669883         2.735995         0.667943
 H        -1.524654        -1.619346         0.416242
