19
Iteration:   176
 O         0.734239         0.472310         0.841139
 C        -0.737788         0.599127         0.742192
 C        -1.353673         0.651031         2.214797
 C        -2.521720        -0.097987         1.720675
 C        -3.334583         0.735788         0.587520
 C        -2.672681         2.085190         0.267150
 C        -1.219972         1.750492        -0.173453
 O        -2.925468        -0.179400        -0.485537
 C        -1.812482        -0.560342         0.419543
 H         1.207040        -0.082695         0.085846
 H        -0.596258         0.163722         2.900416
 H        -1.704446         1.642576         2.586788
 H        -3.161319        -0.596214         2.434797
 H        -4.433731         0.690333         0.684525
 H        -3.183624         2.741703        -0.411350
 H        -2.548261         2.686991         1.264720
 H        -1.181859         1.414686        -1.188099
 H        -0.572620         2.549936        -0.033225
 H        -1.308190        -1.533891         0.089419
