19
Iteration:  1578
 O         0.549673         0.312778         0.411120
 C        -0.710664         0.623423         0.842529
 C        -1.357352         0.628749         2.294199
 C        -2.613123        -0.007278         1.652903
 C        -3.322496         0.753490         0.470881
 C        -2.659647         2.089939         0.212813
 C        -1.110468         1.936995         0.203260
 O        -2.770878        -0.322465        -0.454481
 C        -1.812520        -0.588673         0.558973
 H         1.029358         1.105726         0.205373
 H        -0.907525        -0.158787         2.997120
 H        -1.455596         1.766289         2.992838
 H        -3.168859        -0.655375         2.271632
 H        -4.427231         0.820469         0.582687
 H        -2.824619         2.465728        -0.849550
 H        -3.195828         2.655764         0.963353
 H        -0.971221         1.968831        -0.906645
 H        -0.604704         2.828998         0.532397
 H        -1.275177        -1.574472         0.510260
