19
Iteration:   374charge 0 multiplicity 1
 O         0.637264         0.470384         0.530756
 C        -0.748214         0.606726         0.833125
 C        -1.298281         0.601067         2.378811
 C        -2.604208         0.001643         1.781344
 C        -3.371764         0.709603         0.555130
 C        -2.680395         2.052906         0.118687
 C        -1.189118         1.829586        -0.058103
 O        -2.772809        -0.187421        -0.533573
 C        -1.813359        -0.576617         0.527481
 H         1.109449        -0.225326         1.192053
 H        -0.886532        -0.257317         2.945806
 H        -1.296823         1.524330         2.966948
 H        -3.269592        -0.589934         2.501017
 H        -4.440567         0.672306         0.689138
 H        -3.053435         2.461466        -0.831566
 H        -2.859614         2.792199         0.929733
 H        -1.015895         1.535599        -1.156776
 H        -0.559459         2.772892         0.211124
 H        -1.469816        -1.585364         0.389106
