19
Iteration:  2414
 O         0.658389         0.327970         0.719033
 C        -0.737770         0.636692         0.748005
 C        -1.296714         0.727307         2.235967
 C        -2.494818        -0.129837         1.748045
 C        -3.318480         0.629437         0.630292
 C        -2.746413         2.080512         0.193045
 C        -1.183929         1.922342        -0.010241
 O        -2.930229        -0.190650        -0.450139
 C        -1.778872        -0.552620         0.400695
 H         1.007178         0.106407        -0.215050
 H        -0.531361         0.216251         2.831659
 H        -1.553204         1.737247         2.518232
 H        -3.009513        -0.818072         2.415961
 H        -4.377945         0.737759         0.831118
 H        -3.149839         2.308476        -0.827495
 H        -3.114514         2.843668         0.933827
 H        -0.880001         1.959707        -1.062547
 H        -0.438239         2.725503         0.342883
 H        -1.299018        -1.463842         0.027040
