19
Iteration:   206
 O         0.594001         0.364467         0.827463
 C        -0.803700         0.700182         0.758282
 C        -1.330852         0.646886         2.137742
 C        -2.505254        -0.100008         1.688439
 C        -3.288520         0.697568         0.636217
 C        -2.634068         2.047581         0.258147
 C        -1.244672         1.829508        -0.162736
 O        -2.841162        -0.186369        -0.477278
 C        -1.762191        -0.477076         0.476809
 H         0.944743        -0.294347         0.169555
 H        -0.486993         0.245662         2.788737
 H        -1.548708         1.571229         2.721974
 H        -3.115847        -0.763567         2.259510
 H        -4.323713         0.715513         0.620597
 H        -3.209635         2.509933        -0.497085
 H        -2.647671         2.821740         1.157902
 H        -1.335292         1.324669        -1.106267
 H        -0.559923         2.744255        -0.114793
 H        -1.309063        -1.536374         0.327207
