19
Iteration:  2343
 O         0.639996         0.390206         0.594887
 C        -0.792104         0.584181         0.788929
 C        -1.269139         0.642660         2.190544
 C        -2.552404        -0.029144         1.721680
 C        -3.320653         0.714870         0.549995
 C        -2.749561         2.136422         0.252213
 C        -1.169501         1.855176         0.061212
 O        -2.822114        -0.274821        -0.466319
 C        -1.796827        -0.553985         0.547177
 H         0.869703         0.893476        -0.313546
 H        -0.796705        -0.172349         2.742700
 H        -1.269184         1.628706         2.681246
 H        -3.143286        -0.725546         2.356950
 H        -4.438214         0.562241         0.501706
 H        -3.110485         2.396258        -0.704376
 H        -2.998837         2.813485         1.046897
 H        -0.870466         1.688827        -1.028631
 H        -0.560945         2.749562         0.232690
 H        -1.341762        -1.566485         0.530054
