19
Iteration:   106
 O         0.478211         0.195969         0.342341
 C        -0.795272         0.688995         0.813497
 C        -1.338010         0.681961         2.279043
 C        -2.603045         0.093413         1.759926
 C        -3.321792         0.639724         0.577802
 C        -2.711880         1.988787         0.111554
 C        -1.139699         1.950084         0.240430
 O        -2.693187        -0.253772        -0.474134
 C        -1.703059        -0.485939         0.528933
 H         1.231444         0.644916         0.950624
 H        -0.908670        -0.167485         2.920305
 H        -1.431948         1.635303         2.893607
 H        -3.227217        -0.558182         2.403203
 H        -4.396409         0.599222         0.515680
 H        -2.852576         2.053027        -1.026988
 H        -3.200474         3.002377         0.506618
 H        -0.737765         2.014969        -0.803439
 H        -0.778431         2.875259         0.800697
 H        -1.282588        -1.546921         0.641703
