19
Iteration:   798
 O         0.692681         0.406353         0.731450
 C        -0.663032         0.633950         0.754473
 C        -1.316824         0.693566         2.214469
 C        -2.560932         0.016399         1.644754
 C        -3.373217         0.739046         0.535612
 C        -2.748674         2.064570         0.312996
 C        -1.222137         1.713650        -0.139193
 O        -2.820889        -0.204973        -0.456838
 C        -1.858978        -0.669486         0.495349
 H         1.169808         1.137666         0.514457
 H        -0.694237        -0.043981         2.801003
 H        -1.224547         1.653776         2.819282
 H        -3.147404        -0.471727         2.294403
 H        -4.524443         0.764158         0.676872
 H        -3.102018         2.742606        -0.443336
 H        -2.689405         2.542351         1.318389
 H        -1.197751         1.553718        -1.256485
 H        -0.478603         2.705514        -0.027180
 H        -1.511904        -1.792430         0.524959
