19
Iteration:  4525
 O         0.629383         0.380761         0.691860
 C        -0.774115         0.599708         0.734721
 C        -1.366651         0.693439         2.177513
 C        -2.610619        -0.082201         1.703294
 C        -3.333866         0.735568         0.519880
 C        -2.642797         2.078981         0.316500
 C        -1.118311         1.889833         0.024361
 O        -2.824809        -0.211695        -0.494891
 C        -1.785944        -0.650182         0.500492
 H         1.013291         0.598549        -0.095754
 H        -0.719381        -0.003787         2.676154
 H        -1.578344         1.687229         2.460511
 H        -3.128344        -0.821624         2.356297
 H        -4.450401         0.728396         0.550282
 H        -3.103655         2.807450        -0.316118
 H        -2.739201         2.679978         1.257094
 H        -1.098872         1.621021        -1.091672
 H        -0.500729         2.775448         0.355391
 H        -1.356417        -1.643291         0.416291
