19
Iteration:  1458
 O         0.689825         0.381313         0.513468
 C        -0.703669         0.572535         0.875684
 C        -1.238518         0.619757         2.282600
 C        -2.583118        -0.009167         1.743901
 C        -3.346885         0.730972         0.433464
 C        -2.788163         2.105069         0.133063
 C        -1.200571         1.888015         0.121844
 O        -2.793944        -0.172931        -0.486326
 C        -1.863940        -0.537295         0.571781
 H         0.998086        -0.581339         0.445725
 H        -0.902926        -0.189612         2.916703
 H        -1.092112         1.448899         2.765957
 H        -3.189312        -0.740318         2.222718
 H        -4.454920         0.602080         0.466610
 H        -3.207631         2.378081        -0.894964
 H        -3.083585         2.709857         0.986527
 H        -0.773176         1.890331        -0.907274
 H        -0.773604         2.651684         0.713321
 H        -1.529247        -1.612468         0.337545
