19
Iteration:  3509
 O         0.705474         0.254241         0.738940
 C        -0.748476         0.631668         0.762566
 C        -1.225904         0.719060         2.149644
 C        -2.554274        -0.061381         1.751300
 C        -3.388778         0.684507         0.504977
 C        -2.791358         2.154919         0.348033
 C        -1.224973         1.820674        -0.021605
 O        -2.879026        -0.209900        -0.508164
 C        -1.790818        -0.568744         0.405640
 H         1.529875         0.855275         0.609546
 H        -0.603300         0.136930         2.879991
 H        -1.279102         1.714821         2.533763
 H        -3.008202        -0.779186         2.371960
 H        -4.513592         0.699795         0.600355
 H        -3.048094         2.644864        -0.603613
 H        -2.761147         2.738782         1.275099
 H        -1.166318         1.720186        -1.142782
 H        -0.831155         2.825188         0.177883
 H        -1.228647        -1.524468         0.237710
