19
Iteration:    40charge 0 multiplicity 1
 O         0.666984         0.573443         0.741753
 C        -0.742646         0.662369         0.752692
 C        -1.346053         0.666763         2.222986
 C        -2.576807        -0.060663         1.726471
 C        -3.386621         0.679177         0.554302
 C        -2.548913         2.032908         0.305268
 C        -1.170873         1.703966        -0.247372
 O        -2.887160        -0.163196        -0.465366
 C        -1.846608        -0.597635         0.469242
 H         0.873367        -0.333787         0.938919
 H        -0.581195         0.082855         2.858343
 H        -1.373901         1.592910         2.890029
 H        -3.103165        -0.770224         2.406556
 H        -4.485647         0.732729         0.583365
 H        -3.156340         2.800925        -0.337001
 H        -2.343351         2.507630         1.338631
 H        -1.179378         1.217261        -1.273126
 H        -0.521579         2.613087        -0.135749
 H        -1.562216        -1.718209         0.339733
