19
Iteration:   636charge 0 multiplicity 1
 O         0.723921         0.352704         0.939359
 C        -0.695468         0.587002         0.691971
 C        -1.241231         0.716140         2.067216
 C        -2.541300        -0.034876         1.630297
 C        -3.392203         0.735043         0.640956
 C        -2.763769         2.058254         0.201921
 C        -1.238549         1.737665        -0.099489
 O        -2.877529        -0.151697        -0.443374
 C        -1.816132        -0.575765         0.475700
 H         1.219537         0.888892         0.333457
 H        -0.638415         0.004687         2.726606
 H        -1.230747         1.794942         2.474125
 H        -3.068249        -0.714775         2.373222
 H        -4.440137         0.731933         0.727120
 H        -3.422998         2.421044        -0.656362
 H        -2.921558         2.824079         1.112120
 H        -1.228911         1.383235        -1.093859
 H        -0.644602         2.667822        -0.046477
 H        -1.278327        -1.582818         0.259510
