19
Iteration:  3680
 O         0.686979         0.306123         0.646151
 C        -0.729785         0.597725         0.815321
 C        -1.277293         0.642014         2.232747
 C        -2.551568         0.007081         1.700913
 C        -3.354262         0.783936         0.458624
 C        -2.743509         2.123271         0.331790
 C        -1.255516         1.886398        -0.060570
 O        -2.796727        -0.244701        -0.500547
 C        -1.815931        -0.645149         0.519491
 H         1.129397         1.169934         0.334386
 H        -0.706850        -0.020281         2.885934
 H        -1.175747         1.676229         2.645982
 H        -2.979121        -0.666934         2.532001
 H        -4.444819         0.762801         0.341398
 H        -3.201507         2.607682        -0.551430
 H        -3.108780         2.492154         1.293744
 H        -1.272210         1.510249        -1.088280
 H        -0.593123         2.742905         0.281790
 H        -1.530602        -1.687354         0.451448
