19
Iteration:  3622
 O         0.661029         0.206945         0.581957
 C        -0.808350         0.689597         0.814891
 C        -1.321877         0.712972         2.241245
 C        -2.546682        -0.044117         1.689345
 C        -3.296527         0.707721         0.594192
 C        -2.761662         2.094690         0.220917
 C        -1.177743         1.891360         0.012278
 O        -2.870413        -0.278622        -0.474415
 C        -1.749340        -0.553814         0.430006
 H         1.152074         0.900127         1.082493
 H        -0.649393         0.150796         2.854754
 H        -1.332499         1.742656         2.585902
 H        -3.145096        -0.707430         2.384209
 H        -4.424914         0.702827         0.823904
 H        -3.056755         2.575890        -0.674488
 H        -3.041776         2.797821         1.056070
 H        -0.916568         2.000765        -1.030994
 H        -0.526110         2.763784         0.370627
 H        -1.143424        -1.456067         0.224342
