19
Iteration:  4011
 O         0.623467         0.261187         0.617373
 C        -0.754691         0.546906         0.814677
 C        -1.286958         0.700522         2.269193
 C        -2.603111         0.029254         1.718678
 C        -3.325679         0.703540         0.532894
 C        -2.780768         2.132366         0.268035
 C        -1.266041         1.920007         0.054069
 O        -2.690977        -0.180745        -0.508437
 C        -1.728874        -0.604328         0.493377
 H         0.630868        -0.096288        -0.364334
 H        -0.553625         0.022266         2.772559
 H        -1.381927         1.575216         2.840376
 H        -3.328471        -0.505459         2.281031
 H        -4.405492         0.740012         0.415171
 H        -3.290725         2.453987        -0.671624
 H        -2.820345         2.814096         1.076338
 H        -1.330405         1.689005        -1.050645
 H        -0.595109         2.801477         0.267556
 H        -1.261001        -1.601967         0.324101
