19
Iteration:  2820
 O         0.630000         0.367129         0.513404
 C        -0.783901         0.566194         0.832787
 C        -1.388832         0.719117         2.244230
 C        -2.635707        -0.117145         1.684650
 C        -3.313121         0.734355         0.536188
 C        -2.646450         2.135009         0.336336
 C        -1.209318         1.800145        -0.054000
 O        -2.835351        -0.188997        -0.456874
 C        -1.678453        -0.620333         0.510748
 H         1.244641         1.058032         0.924466
 H        -0.735192         0.081171         2.991144
 H        -1.500656         1.755230         2.781651
 H        -3.109804        -0.799922         2.388549
 H        -4.423949         0.717660         0.457023
 H        -3.252198         2.694112        -0.459923
 H        -2.681821         2.637727         1.345874
 H        -1.220037         1.579315        -1.172717
 H        -0.367288         2.677670        -0.007647
 H        -1.178436        -1.545894         0.188739
