19
Iteration:   513charge 0 multiplicity 1
 O         0.641655         0.420390         0.756527
 C        -0.737007         0.744771         0.776836
 C        -1.346668         0.645384         2.262215
 C        -2.555724        -0.124888         1.726911
 C        -3.269192         0.749785         0.511569
 C        -2.569213         2.096593         0.226105
 C        -1.128159         1.894471        -0.148982
 O        -2.965969        -0.349271        -0.424851
 C        -1.876692        -0.610649         0.465276
 H         1.051561         0.789032         0.017475
 H        -0.794128        -0.173669         2.873472
 H        -1.613574         1.614796         2.795127
 H        -3.112821        -0.788822         2.325530
 H        -4.336539         1.012885         0.484124
 H        -3.051470         2.496567        -0.648645
 H        -2.626204         2.831824         1.164580
 H        -1.084285         1.464458        -1.073915
 H        -0.547092         2.836933         0.023334
 H        -1.284848        -1.652810         0.337948
