19
Iteration:  1867charge 0 multiplicity 1
 O         0.649275         0.193966         0.707298
 C        -0.773661         0.620386         0.720144
 C        -1.223824         0.652614         2.237136
 C        -2.486858         0.031834         1.730943
 C        -3.336947         0.659365         0.563029
 C        -2.835924         2.074031         0.140601
 C        -1.245650         1.990673         0.160854
 O        -2.779805        -0.187075        -0.507361
 C        -1.788491        -0.527359         0.393733
 H         0.986311        -0.038746        -0.273629
 H        -0.741895         0.041493         2.883913
 H        -1.369308         1.576833         2.564520
 H        -3.069025        -0.542555         2.452795
 H        -4.403219         0.423389         0.665990
 H        -3.300132         2.538677        -0.643501
 H        -3.123004         2.742187         1.036279
 H        -0.823669         2.148465        -0.839808
 H        -0.699161         2.826697         0.729598
 H        -1.445417        -1.529756         0.306508
