19
Iteration:  1990charge 0 multiplicity 1
 O         0.649323         0.293279         0.612969
 C        -0.739708         0.760043         0.857754
 C        -1.372942         0.778812         2.223669
 C        -2.549992        -0.153894         1.732526
 C        -3.296364         0.690078         0.631497
 C        -2.680059         2.069677         0.239403
 C        -1.181826         1.924387         0.011806
 O        -2.834146        -0.242068        -0.511635
 C        -1.777711        -0.594573         0.426885
 H         0.540862        -0.171631        -0.145404
 H        -0.647742         0.260072         2.846212
 H        -1.570446         1.705686         2.599046
 H        -3.346671        -0.647018         2.418959
 H        -4.411393         0.684369         0.733656
 H        -3.167330         2.359632        -0.691254
 H        -2.789488         2.762700         1.080341
 H        -0.932032         1.602597        -1.057199
 H        -0.659321         2.852978         0.251582
 H        -1.248381        -1.604316         0.301568
