19
Iteration:  1591
 O         0.607573         0.328864         0.396446
 C        -0.790545         0.571524         0.876391
 C        -1.281612         0.615955         2.335023
 C        -2.599632         0.029299         1.738934
 C        -3.260650         0.724656         0.405272
 C        -2.710037         2.105559         0.169035
 C        -1.147529         1.930718         0.233337
 O        -2.815839        -0.329990        -0.495328
 C        -1.820130        -0.550951         0.535791
 H         0.962771         1.291221         0.134272
 H        -0.774620        -0.130068         3.029465
 H        -1.329105         1.780362         2.873663
 H        -3.371310        -0.507456         2.319818
 H        -4.377930         0.719595         0.296127
 H        -3.138358         2.515493        -0.766044
 H        -3.003421         2.794163         0.982984
 H        -0.699456         1.733031        -0.742438
 H        -0.606841         2.620201         0.823069
 H        -1.384140        -1.611485         0.536049
