19
Iteration:  3555charge 0 multiplicity 1
 O         0.554944         0.300516         0.472228
 C        -0.795841         0.618170         0.846743
 C        -1.338955         0.680449         2.298138
 C        -2.607229        -0.135849         1.721845
 C        -3.290739         0.736344         0.477183
 C        -2.673551         2.074913         0.248059
 C        -1.162075         1.852824         0.013277
 O        -2.782920        -0.190733        -0.459751
 C        -1.722770        -0.495549         0.563694
 H         1.011664         1.169792         0.418010
 H        -0.714317         0.048953         2.947429
 H        -1.432098         1.602668         2.806898
 H        -3.336427        -0.721059         2.240453
 H        -4.428685         0.899867         0.591050
 H        -3.289797         2.365386        -0.583333
 H        -2.938478         2.595884         1.180151
 H        -0.794894         1.493564        -0.947800
 H        -0.404514         2.669868         0.051191
 H        -1.308100        -1.542848         0.502938
