19
Iteration:   754charge 0 multiplicity 1
 O         0.604083         0.354585         0.777674
 C        -0.739008         0.691843         0.787529
 C        -1.305715         0.672803         2.222341
 C        -2.469908        -0.084952         1.663366
 C        -3.301740         0.725661         0.621190
 C        -2.670620         2.045687         0.164006
 C        -1.205122         1.898467        -0.105872
 O        -2.905379        -0.234061        -0.419494
 C        -1.795575        -0.558693         0.455604
 H         0.777469         0.077985        -0.082831
 H        -0.745186         0.048287         2.982324
 H        -1.663629         1.544379         2.831265
 H        -2.975417        -0.743416         2.246081
 H        -4.447350         0.624155         0.704320
 H        -3.224465         2.316163        -0.667613
 H        -2.684107         2.924259         0.833120
 H        -0.769636         1.683613        -1.111298
 H        -0.564603         2.848574         0.088303
 H        -1.407850        -1.621579         0.194841
