19
Iteration:  1639
 O         0.600110         0.208473         0.703538
 C        -0.730357         0.677929         0.782883
 C        -1.280033         0.677404         2.286890
 C        -2.509265        -0.105486         1.699349
 C        -3.368348         0.722561         0.594672
 C        -2.704318         2.065748         0.253200
 C        -1.210521         1.876404        -0.084109
 O        -2.848294        -0.156045        -0.505562
 C        -1.734319        -0.532398         0.393359
 H         1.097970         0.953419         0.629899
 H        -0.837051         0.028816         3.040187
 H        -1.487911         1.786579         2.710881
 H        -3.078250        -0.794391         2.359363
 H        -4.451338         0.691741         0.669148
 H        -3.188372         2.433453        -0.655276
 H        -2.843757         2.775996         1.150632
 H        -1.189482         1.557592        -1.130331
 H        -0.746004         2.876885         0.254249
 H        -1.234136        -1.423652         0.125703
