19
Iteration:  4059
 O         0.618787         0.337900         0.679296
 C        -0.706086         0.618849         0.775690
 C        -1.308115         0.669004         2.171238
 C        -2.554010        -0.051038         1.707636
 C        -3.267891         0.751564         0.505716
 C        -2.680292         2.128288         0.280919
 C        -1.156665         1.869211         0.033596
 O        -2.904795        -0.267439        -0.487119
 C        -1.837838        -0.633239         0.470565
 H         1.029971         0.967799         0.181011
 H        -0.732048         0.045900         2.857885
 H        -1.279772         1.728571         2.609777
 H        -3.156695        -0.767348         2.343300
 H        -4.312428         0.820097         0.754816
 H        -3.095980         2.391414        -0.702502
 H        -2.934212         2.709765         1.171366
 H        -1.129703         1.894306        -1.046170
 H        -0.667634         2.807981         0.425679
 H        -1.392393        -1.646513         0.423540
