19
Iteration:  3779charge 0 multiplicity 1
 O         0.626239         0.389845         0.659940
 C        -0.747779         0.556902         0.779906
 C        -1.303544         0.691506         2.242831
 C        -2.570474         0.034279         1.689318
 C        -3.312238         0.724773         0.478646
 C        -2.737098         2.074467         0.370882
 C        -1.176990         1.841565        -0.037488
 O        -2.764062        -0.253757        -0.551524
 C        -1.824935        -0.576423         0.528785
 H         0.841007         0.019677        -0.240499
 H        -0.960160         0.123035         3.121055
 H        -1.360387         1.706407         2.639079
 H        -3.115435        -0.665868         2.402120
 H        -4.422648         0.687118         0.500271
 H        -3.292160         2.858934        -0.254379
 H        -2.669040         2.568561         1.365490
 H        -1.154041         1.466032        -1.085193
 H        -0.605895         2.739448         0.315644
 H        -1.352019        -1.526712         0.303482
