19
Iteration:  3022
 O         0.665854         0.318564         0.495455
 C        -0.685230         0.529633         0.820785
 C        -1.239834         0.564311         2.260722
 C        -2.571370         0.124559         1.711240
 C        -3.353730         0.710525         0.471188
 C        -2.794801         2.099093         0.147091
 C        -1.280219         1.847392         0.101073
 O        -2.751864        -0.193381        -0.452795
 C        -1.810258        -0.557107         0.612692
 H         1.275383         0.949736         0.955729
 H        -0.818259        -0.297593         2.668083
 H        -1.250253         1.522604         2.687375
 H        -3.383839        -0.493792         2.250793
 H        -4.434548         0.647069         0.491408
 H        -3.171463         2.485774        -0.798907
 H        -3.168787         2.841636         0.885952
 H        -0.975077         1.698141        -0.958290
 H        -0.798680         2.723797         0.646355
 H        -1.444319        -1.586068         0.425463
