19
Iteration:  4395charge 0 multiplicity 1
 O         0.548569         0.216470         0.650814
 C        -0.759961         0.603614         0.758257
 C        -1.271066         0.715681         2.250665
 C        -2.541535        -0.126550         1.747630
 C        -3.315665         0.740698         0.562646
 C        -2.742796         2.149222         0.254499
 C        -1.261759         1.921815        -0.008048
 O        -2.750161        -0.210674        -0.485731
 C        -1.723046        -0.566803         0.433023
 H         1.193766         0.983759         0.330860
 H        -0.868312         0.103801         3.073033
 H        -1.514666         1.659303         2.794499
 H        -3.211418        -0.702859         2.448401
 H        -4.394068         0.660608         0.394422
 H        -3.101719         2.679350        -0.626327
 H        -2.846218         2.877833         1.056409
 H        -1.253639         1.627623        -1.066944
 H        -0.518875         2.670601         0.097324
 H        -1.245336        -1.594903         0.311848
