19
Iteration:  3117
 O         0.651306         0.357033         0.605748
 C        -0.757251         0.605231         0.800747
 C        -1.268832         0.621562         2.270210
 C        -2.658909        -0.011413         1.698927
 C        -3.402169         0.713025         0.540277
 C        -2.685468         2.093146         0.244105
 C        -1.196437         1.762338        -0.022810
 O        -2.741900        -0.170826        -0.471105
 C        -1.773797        -0.563763         0.459893
 H         1.035748         1.195408         0.551264
 H        -1.013995        -0.297873         2.876954
 H        -1.289722         1.603653         2.858226
 H        -3.130341        -0.561146         2.426386
 H        -4.503248         0.719667         0.641638
 H        -3.140847         2.528075        -0.620834
 H        -2.754895         2.887937         1.044856
 H        -1.152446         1.623246        -1.122004
 H        -0.575489         2.595491         0.363079
 H        -1.483438        -1.600698         0.364385
