19
Iteration:  2058
 O         0.626038         0.380885         0.633419
 C        -0.762731         0.621609         0.766263
 C        -1.293319         0.598821         2.268835
 C        -2.595155        -0.076894         1.726162
 C        -3.311503         0.747885         0.600062
 C        -2.723386         2.089259         0.129319
 C        -1.184481         1.841164        -0.014073
 O        -2.856689        -0.249571        -0.440860
 C        -1.732219        -0.518707         0.546998
 H         0.868490         0.902427        -0.209013
 H        -0.591117        -0.071519         2.787308
 H        -1.399919         1.545486         2.731992
 H        -3.184196        -0.793116         2.336918
 H        -4.407708         0.752724         0.742611
 H        -3.109327         2.498889        -0.869043
 H        -2.773719         2.841952         0.926754
 H        -0.881103         1.707256        -1.115796
 H        -0.714173         2.732065         0.375320
 H        -1.261796        -1.540253         0.373702
