19
Iteration:  2301
 O         0.621742         0.256637         0.637537
 C        -0.722233         0.682527         0.751311
 C        -1.266741         0.702501         2.210944
 C        -2.528086        -0.087709         1.719265
 C        -3.389046         0.674127         0.600057
 C        -2.760104         2.094645         0.153897
 C        -1.170364         1.985442         0.152009
 O        -2.892791        -0.304039        -0.428960
 C        -1.716834        -0.473778         0.419807
 H         0.855459         0.285461        -0.316376
 H        -0.676655         0.091754         2.849650
 H        -1.320337         1.672090         2.723066
 H        -2.853363        -0.835009         2.325898
 H        -4.465255         0.710831         0.754137
 H        -3.096657         1.888118        -0.888517
 H        -3.173196         2.982798         0.617604
 H        -0.959998         2.101807        -0.963418
 H        -0.410893         2.721761         0.614556
 H        -1.300882        -1.479250         0.303814
