19
Iteration:  3480charge 0 multiplicity 1
 O         0.579489         0.337894         0.575596
 C        -0.790909         0.652766         0.784633
 C        -1.363679         0.607345         2.262569
 C        -2.587981        -0.088004         1.706074
 C        -3.240112         0.743484         0.577456
 C        -2.688971         2.087553         0.229493
 C        -1.173687         1.829657        -0.023837
 O        -2.857874        -0.189962        -0.435760
 C        -1.715172        -0.574595         0.476891
 H         1.303575         1.095696         0.415320
 H        -0.839118        -0.063950         2.940705
 H        -1.418179         1.591661         2.769526
 H        -3.204241        -0.901678         2.150068
 H        -4.295098         0.807286         0.892192
 H        -3.143168         2.382845        -0.691398
 H        -2.956837         2.948133         0.919281
 H        -0.715845         1.728697        -1.028941
 H        -0.705387         2.825946         0.258696
 H        -1.226399        -1.567101         0.414773
