19
Iteration:  1845charge 0 multiplicity 1
 O         0.696501         0.371085         0.732414
 C        -0.665172         0.647491         0.805686
 C        -1.285856         0.644107         2.174667
 C        -2.575223        -0.106917         1.619884
 C        -3.370062         0.748122         0.552280
 C        -2.716934         2.086977         0.274126
 C        -1.173758         1.856664         0.075417
 O        -2.931254        -0.219539        -0.494264
 C        -1.756772        -0.558089         0.429010
 H         0.870069         0.009736        -0.080471
 H        -0.781568        -0.032398         2.748534
 H        -1.293945         1.561114         2.571665
 H        -3.070170        -0.743086         2.350005
 H        -4.460952         0.874711         0.622791
 H        -3.193278         2.494014        -0.595228
 H        -3.036949         2.754720         1.122371
 H        -1.097046         1.906590        -1.010209
 H        -0.591525         2.824886         0.353763
 H        -1.437310        -1.576865         0.376020
