19
Iteration:  1248
 O         0.686997         0.454932         0.612581
 C        -0.743183         0.572790         0.783237
 C        -1.333477         0.611911         2.281744
 C        -2.613018        -0.051617         1.664114
 C        -3.284471         0.781310         0.590333
 C        -2.666117         2.117593         0.272174
 C        -1.170066         1.708457        -0.087360
 O        -2.839652        -0.212853        -0.446097
 C        -1.842933        -0.566260         0.485720
 H         0.989595         1.412088         0.645439
 H        -0.910632        -0.261500         2.835332
 H        -1.543600         1.485424         2.868101
 H        -3.417466        -0.651490         2.143144
 H        -4.398231         0.662122         0.686871
 H        -3.172112         2.560707        -0.633094
 H        -2.738170         2.658297         1.141695
 H        -1.109083         1.437822        -1.110265
 H        -0.526744         2.610249         0.087879
 H        -1.264744        -1.559414         0.229971
