19
Iteration:  3564
 O         0.549179         0.320754         0.454808
 C        -0.792773         0.620333         0.852585
 C        -1.336818         0.615225         2.369488
 C        -2.553891        -0.027510         1.658665
 C        -3.304082         0.731020         0.518886
 C        -2.677389         2.089685         0.202250
 C        -1.171164         1.863167         0.026185
 O        -2.761829        -0.228030        -0.417041
 C        -1.760453        -0.546391         0.507005
 H         1.161245         1.083144         0.445347
 H        -0.862043        -0.109608         3.099218
 H        -1.484971         1.609486         2.744576
 H        -3.210252        -0.688170         2.140447
 H        -4.418528         0.779771         0.744542
 H        -2.982393         2.499254        -0.820264
 H        -2.914144         2.873188         0.965003
 H        -1.125979         1.489845        -1.015279
 H        -0.642626         2.739475         0.391281
 H        -1.334751        -1.593057         0.514318
