19
Iteration:  3211
 O         0.586554         0.277171         0.618685
 C        -0.744457         0.655512         0.757497
 C        -1.355535         0.666852         2.244773
 C        -2.536092        -0.116488         1.668204
 C        -3.295853         0.763756         0.603737
 C        -2.674862         2.086730         0.298978
 C        -1.237702         1.837254        -0.077818
 O        -2.781736        -0.155111        -0.466966
 C        -1.778131        -0.536710         0.447194
 H         1.139818         0.853298         1.304477
 H        -0.714854        -0.035292         2.772528
 H        -1.447546         1.626054         2.733667
 H        -3.205327        -0.927664         2.196112
 H        -4.396373         0.659066         0.500076
 H        -3.240257         2.582325        -0.568290
 H        -2.985223         2.716655         1.158532
 H        -1.201610         1.414766        -1.112560
 H        -0.503640         2.677111         0.281779
 H        -1.226147        -1.484223         0.427907
