19
Iteration:  4885
 O         0.618900         0.377205         0.686513
 C        -0.745682         0.548918         0.767902
 C        -1.275464         0.688044         2.286614
 C        -2.580518        -0.002981         1.632234
 C        -3.320547         0.726918         0.471976
 C        -2.717284         2.125379         0.313777
 C        -1.196648         1.809484         0.042036
 O        -2.803281        -0.234063        -0.509862
 C        -1.769549        -0.592830         0.458984
 H         1.010042         0.219516        -0.117802
 H        -0.703153        -0.001807         2.961754
 H        -1.381413         1.719466         2.640494
 H        -3.306382        -0.513828         2.220168
 H        -4.412685         0.675842         0.490586
 H        -3.134492         2.857280        -0.368652
 H        -2.944620         2.555212         1.305570
 H        -1.179855         1.802252        -1.076753
 H        -0.579925         2.675606         0.510940
 H        -1.521993        -1.598956         0.363254
