19
Iteration:  2613
 O         0.597708         0.232969         0.613401
 C        -0.785356         0.650145         0.783200
 C        -1.215735         0.672738         2.202168
 C        -2.608087         0.089723         1.727453
 C        -3.318166         0.716489         0.523883
 C        -2.773130         2.081785         0.245805
 C        -1.232331         1.941364         0.056326
 O        -2.750969        -0.334799        -0.469671
 C        -1.758728        -0.575183         0.471290
 H         1.059567         0.820754        -0.113184
 H        -0.758098        -0.068642         2.870147
 H        -1.145093         1.576921         2.781491
 H        -3.232790        -0.503703         2.446053
 H        -4.386749         0.636677         0.653484
 H        -3.233631         2.580528        -0.609146
 H        -2.930562         2.711792         1.173182
 H        -0.985826         1.845843        -1.031049
 H        -0.756757         2.925874         0.582931
 H        -1.255627        -1.513447         0.262077
