19
Iteration:  3325
 O         0.581919         0.289094         0.504630
 C        -0.755337         0.588967         0.782643
 C        -1.361467         0.688355         2.272471
 C        -2.572827        -0.069909         1.684899
 C        -3.344704         0.766202         0.469498
 C        -2.651205         2.058138         0.249417
 C        -1.207983         1.898619         0.093518
 O        -2.790364        -0.229149        -0.479870
 C        -1.743152        -0.573080         0.537155
 H         1.258656         0.916875         0.645624
 H        -0.661284         0.025241         2.912617
 H        -1.432148         1.693076         2.802062
 H        -3.196433        -0.644936         2.308409
 H        -4.472567         0.890834         0.510076
 H        -3.169424         2.487493        -0.601796
 H        -2.805149         2.651247         1.213713
 H        -1.082341         1.949604        -1.026444
 H        -0.636906         2.655017         0.684709
 H        -1.205729        -1.560981         0.508448
