19
Iteration:  4533charge 0 multiplicity 1
 O         0.610156         0.415442         0.691138
 C        -0.787394         0.579634         0.773345
 C        -1.345168         0.635607         2.149932
 C        -2.576885        -0.093694         1.726044
 C        -3.338315         0.721904         0.539790
 C        -2.565011         2.094301         0.282651
 C        -1.166537         1.844106        -0.008110
 O        -2.795564        -0.206753        -0.493263
 C        -1.852743        -0.583735         0.511973
 H         0.775532         0.773449        -0.154907
 H        -0.742079         0.005361         2.838981
 H        -1.479637         1.503538         2.803015
 H        -3.209975        -0.808667         2.248163
 H        -4.447276         0.780699         0.584499
 H        -2.983443         2.527830        -0.659573
 H        -2.764626         2.697875         1.205479
 H        -1.011529         1.910938        -1.064181
 H        -0.593978         2.732549         0.375093
 H        -1.367058        -1.524518         0.391038
