19
Iteration:  4892
 O         0.725788         0.343118         0.743381
 C        -0.725810         0.589731         0.726706
 C        -1.292078         0.643719         2.274262
 C        -2.596564        -0.029820         1.678713
 C        -3.311481         0.741627         0.436267
 C        -2.724007         2.093606         0.328045
 C        -1.260751         1.860760         0.020800
 O        -2.822799        -0.221234        -0.488315
 C        -1.820137        -0.530223         0.434172
 H         0.925179         0.252301        -0.196866
 H        -0.671905         0.074019         2.964436
 H        -1.313722         1.615539         2.752293
 H        -3.298247        -0.601665         2.355459
 H        -4.392068         0.540634         0.486665
 H        -3.100540         2.650929        -0.556979
 H        -2.869949         2.632130         1.256630
 H        -1.084416         1.763007        -1.091906
 H        -0.618680         2.687664         0.240478
 H        -1.625832        -1.678580         0.363080
