19
Iteration:  1373
 O         0.688053         0.444599         0.750824
 C        -0.733076         0.573504         0.723571
 C        -1.265894         0.538943         2.216649
 C        -2.545528        -0.058363         1.682168
 C        -3.385607         0.806753         0.515793
 C        -2.678808         2.161042         0.307791
 C        -1.279715         1.656878        -0.110317
 O        -2.848991        -0.148969        -0.477109
 C        -1.787730        -0.620618         0.509099
 H         1.028337         1.363406         0.877651
 H        -0.692086        -0.183943         2.898082
 H        -1.409188         1.648304         2.697199
 H        -3.231312        -0.685147         2.233124
 H        -4.475994         0.707968         0.657514
 H        -3.160273         2.765081        -0.436326
 H        -2.612568         2.905095         1.070289
 H        -1.190448         1.387666        -1.215457
 H        -0.610720         2.521215        -0.012936
 H        -1.330293        -1.542577         0.154126
