19
Iteration:  4633charge 0 multiplicity 1
 O         0.683828         0.284466         0.672032
 C        -0.724731         0.652758         0.843732
 C        -1.418713         0.658357         2.236006
 C        -2.566036        -0.052058         1.651606
 C        -3.335845         0.701291         0.541737
 C        -2.673837         2.126190         0.330505
 C        -1.234461         1.823152        -0.063554
 O        -2.798974        -0.177614        -0.506640
 C        -1.735861        -0.516040         0.454132
 H         0.905162         0.266722        -0.206334
 H        -0.998888        -0.057869         3.046933
 H        -1.495043         1.638564         2.781847
 H        -3.191613        -0.705964         2.373743
 H        -4.467420         0.603861         0.563034
 H        -3.308740         2.641468        -0.441262
 H        -2.674321         2.676701         1.363891
 H        -1.045514         1.539937        -1.120248
 H        -0.638198         2.786549         0.117352
 H        -1.340431        -1.504321         0.383367
