19
Iteration:   801charge 0 multiplicity 1
 O         0.687001         0.381027         0.703067
 C        -0.662984         0.625030         0.770258
 C        -1.305125         0.685300         2.233788
 C        -2.581526         0.047463         1.647064
 C        -3.372879         0.753278         0.523426
 C        -2.768283         2.063839         0.284770
 C        -1.238640         1.739996        -0.127223
 O        -2.799827        -0.218527        -0.458021
 C        -1.829802        -0.655272         0.512727
 H         1.204319         1.243044         0.510098
 H        -0.686367        -0.082586         2.719817
 H        -1.184612         1.583922         2.947370
 H        -3.247429        -0.551745         2.339559
 H        -4.410402         0.725678         0.626935
 H        -3.172255         2.763362        -0.322784
 H        -2.728917         2.528904         1.264310
 H        -1.183427         1.568653        -1.157369
 H        -0.498336         2.556659        -0.074627
 H        -1.553179        -1.736618         0.524359
