19
Iteration:  2085
 O         0.641093         0.320591         0.760300
 C        -0.705859         0.640786         0.731713
 C        -1.332869         0.729015         2.200972
 C        -2.495596        -0.101126         1.704292
 C        -3.281624         0.670738         0.634386
 C        -2.729382         2.042612         0.300804
 C        -1.163788         1.820986        -0.122698
 O        -2.952001        -0.162662        -0.481821
 C        -1.755914        -0.595220         0.422676
 H         1.150034         1.108197         0.349192
 H        -0.607367         0.420679         2.971927
 H        -1.730642         1.821713         2.403859
 H        -3.083899        -0.675540         2.424609
 H        -4.355536         0.661619         0.847123
 H        -3.166201         2.376130        -0.629082
 H        -2.822061         2.808623         1.105216
 H        -1.142238         1.558455        -1.135199
 H        -0.615388         2.793748        -0.014440
 H        -1.448893        -1.584051         0.198062
