19
Iteration:  2489
 O         0.660623         0.391461         0.540534
 C        -0.724088         0.540509         0.796667
 C        -1.389392         0.703602         2.268332
 C        -2.570803        -0.027253         1.729988
 C        -3.308204         0.700814         0.571407
 C        -2.759313         2.097289         0.275484
 C        -1.216088         1.772596         0.009833
 O        -2.796653        -0.169491        -0.461803
 C        -1.753264        -0.600266         0.518658
 H         0.912549         0.741317        -0.365555
 H        -0.802110         0.125873         3.011991
 H        -1.432401         1.754156         2.660729
 H        -3.183397        -0.587176         2.332565
 H        -4.417126         0.722131         0.566747
 H        -3.212795         2.391928        -0.690871
 H        -2.672131         2.773725         1.089083
 H        -1.105640         1.505653        -1.116286
 H        -0.421311         2.677354         0.230772
 H        -1.211778        -1.587622         0.419057
