19
Iteration:  2955
 O         0.639142         0.181763         0.696765
 C        -0.711461         0.644496         0.732258
 C        -1.331158         0.786513         2.194716
 C        -2.565961        -0.067282         1.744829
 C        -3.343132         0.698128         0.572567
 C        -2.767650         2.050968         0.343981
 C        -1.216669         1.820120        -0.044516
 O        -2.820290        -0.142228        -0.529675
 C        -1.740651        -0.528334         0.411279
 H         1.143767         0.998653         0.498898
 H        -0.685201         0.197183         2.788964
 H        -1.601828         1.762315         2.549055
 H        -2.912648        -0.819669         2.531998
 H        -4.322258         0.397332         0.746663
 H        -3.124187         2.548334        -0.517024
 H        -2.830313         2.772156         1.214773
 H        -1.131415         1.681628        -1.153346
 H        -0.669831         2.781101         0.217035
 H        -1.225961        -1.495453         0.423678
