19
Iteration:  3570charge 0 multiplicity 1
 O         0.554820         0.305132         0.459926
 C        -0.721866         0.642707         0.839332
 C        -1.344693         0.590225         2.365642
 C        -2.547952         0.032828         1.669670
 C        -3.308642         0.758977         0.582853
 C        -2.689421         2.110723         0.166275
 C        -1.209479         1.840424         0.057516
 O        -2.770955        -0.259692        -0.444207
 C        -1.776026        -0.595210         0.499852
 H         1.145993         1.175244         0.535489
 H        -0.904026        -0.101234         3.068123
 H        -1.472949         1.615896         2.840371
 H        -3.161581        -0.735614         2.250834
 H        -4.375369         0.607620         0.525839
 H        -2.999820         2.582446        -0.767517
 H        -2.918516         2.957202         0.816578
 H        -1.065038         1.721975        -1.039066
 H        -0.675816         2.745818         0.417925
 H        -1.314036        -1.554279         0.361541
