19
Iteration:  2750
 O         0.559935         0.173254         0.545954
 C        -0.728405         0.732615         0.799318
 C        -1.322888         0.704885         2.257311
 C        -2.543644        -0.125604         1.683283
 C        -3.273583         0.695736         0.591558
 C        -2.757881         2.048444         0.194084
 C        -1.201620         2.021760         0.054141
 O        -2.834279        -0.232447        -0.463157
 C        -1.726337        -0.566719         0.480164
 H         1.171470         0.858166         0.635729
 H        -0.803224         0.064570         2.982209
 H        -1.339075         1.697580         2.735977
 H        -3.233830        -0.771536         2.315748
 H        -4.367599         0.844998         0.818963
 H        -3.186574         2.134343        -0.825746
 H        -2.979310         2.792414         0.935142
 H        -0.748700         1.988358        -0.958730
 H        -0.635577         3.056266         0.399692
 H        -1.215727        -1.543575         0.351581
