19
Iteration:   930
 O         0.690965         0.406306         0.603403
 C        -0.722004         0.566007         0.783902
 C        -1.402795         0.713033         2.265523
 C        -2.625554        -0.072329         1.681200
 C        -3.343749         0.718628         0.582760
 C        -2.632033         2.121248         0.354856
 C        -1.265865         1.671722        -0.146587
 O        -2.788229        -0.147700        -0.468406
 C        -1.724224        -0.613194         0.474519
 H         1.018314         1.366870         0.680331
 H        -0.855873         0.164896         3.015319
 H        -1.830515         1.624079         2.597953
 H        -3.181254        -0.655081         2.277088
 H        -4.455061         0.848002         0.521872
 H        -3.161596         2.796261        -0.383716
 H        -2.470926         2.766261         1.334755
 H        -1.387662         1.170046        -1.047263
 H        -0.582699         2.521170        -0.071256
 H        -1.312951        -1.687515         0.395777
