19
Iteration:   133
 O         0.632240         0.215766         0.484423
 C        -0.804207         0.605865         0.828017
 C        -1.274902         0.615937         2.314269
 C        -2.614804         0.022035         1.796203
 C        -3.246127         0.730479         0.446093
 C        -2.767196         2.151910         0.063994
 C        -1.233079         1.955517         0.141909
 O        -2.742978        -0.312935        -0.429033
 C        -1.761791        -0.539452         0.538207
 H         0.941588         1.082181        -0.051542
 H        -0.755605        -0.002415         3.061771
 H        -1.292265         1.630743         2.734040
 H        -3.344927        -0.609125         2.291328
 H        -4.368494         0.745453         0.411397
 H        -3.183332         2.683900        -0.766142
 H        -3.036710         2.678494         0.969077
 H        -0.848200         1.927787        -0.891515
 H        -0.943994         2.769965         0.722045
 H        -1.342606        -1.554058         0.524941
