19
Iteration:  4963
 O         0.733309         0.362406         0.634150
 C        -0.753607         0.571398         0.769259
 C        -1.396623         0.625895         2.219783
 C        -2.623849         0.017552         1.601319
 C        -3.342003         0.709986         0.535588
 C        -2.667483         2.112117         0.329425
 C        -1.147921         1.869171         0.034550
 O        -2.825418        -0.249526        -0.461367
 C        -1.802810        -0.565566         0.509294
 H         0.967350         0.492887        -0.324191
 H        -0.988040        -0.073434         2.953658
 H        -1.497178         1.601282         2.748146
 H        -3.063894        -0.739589         2.232864
 H        -4.405681         0.688437         0.352414
 H        -3.210489         2.549301        -0.495654
 H        -2.904901         2.650558         1.272295
 H        -0.919704         2.052571        -1.031107
 H        -0.579702         2.738801         0.558922
 H        -1.484470        -1.538157         0.417427
