19
Iteration:  2776charge 0 multiplicity 1
 O         0.652075         0.294144         0.635138
 C        -0.730572         0.652318         0.740004
 C        -1.248922         0.619806         2.225267
 C        -2.536320        -0.034742         1.736528
 C        -3.373561         0.677422         0.501465
 C        -2.764597         2.126865         0.238519
 C        -1.250157         1.840301         0.014052
 O        -2.874719        -0.228434        -0.459786
 C        -1.742984        -0.526703         0.457383
 H         1.051838         1.135660         0.940343
 H        -0.680611        -0.160641         2.863872
 H        -1.024194         1.513176         2.932223
 H        -3.180962        -0.560846         2.402497
 H        -4.493798         0.667362         0.631102
 H        -3.115279         2.580279        -0.767373
 H        -2.853637         2.900525         1.075486
 H        -0.941546         1.698501        -1.075731
 H        -0.534519         2.726375         0.343315
 H        -1.280815        -1.504321         0.323072
