19
Iteration:  3893
 O         0.561312         0.228232         0.441622
 C        -0.759357         0.583662         0.854867
 C        -1.315479         0.733957         2.290515
 C        -2.620994         0.032652         1.664186
 C        -3.366151         0.744487         0.481975
 C        -2.697064         2.112750         0.320030
 C        -1.203539         1.864872         0.067032
 O        -2.699561        -0.285444        -0.490675
 C        -1.751357        -0.521183         0.523526
 H         1.223479         0.933422         0.929871
 H        -0.760460         0.155338         3.124018
 H        -1.431558         1.798044         2.744836
 H        -3.132844        -0.672647         2.280473
 H        -4.386879         0.432669         0.406629
 H        -3.253482         2.487044        -0.664848
 H        -2.816417         2.650637         1.293316
 H        -1.109232         1.522429        -0.965338
 H        -0.664692         2.822785         0.346782
 H        -1.264757        -1.517157         0.292408
