19
Iteration:  4679
 O         0.684413         0.416327         0.719620
 C        -0.715431         0.580023         0.807540
 C        -1.314543         0.576817         2.214732
 C        -2.569519        -0.035505         1.603667
 C        -3.285999         0.818610         0.552685
 C        -2.715818         2.110226         0.169407
 C        -1.170340         1.888308         0.057832
 O        -2.881393        -0.256457        -0.420972
 C        -1.816944        -0.665116         0.442253
 H         0.958898         0.578670        -0.137327
 H        -0.713305        -0.180121         2.760156
 H        -1.519466         1.404439         2.870465
 H        -3.292540        -0.579336         2.223964
 H        -4.371983         0.931094         0.757321
 H        -3.068254         2.566113        -0.771761
 H        -2.944191         2.828548         1.035111
 H        -1.030189         1.971438        -1.011707
 H        -0.583004         2.660771         0.557712
 H        -1.594192        -1.704213         0.203507
