19
Iteration:   685charge 0 multiplicity 1
 O         0.574859         0.361961         0.509460
 C        -0.779711         0.632988         0.824058
 C        -1.423004         0.731418         2.265811
 C        -2.633725        -0.010389         1.734283
 C        -3.336016         0.686041         0.511847
 C        -2.603186         2.121932         0.231473
 C        -1.131558         1.844491         0.074583
 O        -2.751578        -0.335567        -0.408357
 C        -1.719280        -0.566390         0.535127
 H         0.572974         0.410090        -0.512521
 H        -0.821021         0.193722         2.986498
 H        -1.527760         1.711520         2.675356
 H        -3.155303        -0.694676         2.427103
 H        -4.462216         0.683355         0.277762
 H        -3.027708         2.475628        -0.762955
 H        -2.950877         2.892560         0.865872
 H        -0.877639         1.786860        -1.058044
 H        -0.445069         2.716552         0.264879
 H        -1.333760        -1.566248         0.538021
