19
Iteration:   503charge 0 multiplicity 1
 O         0.672123         0.471927         0.789902
 C        -0.734516         0.660740         0.767314
 C        -1.346247         0.644160         2.259340
 C        -2.585340        -0.047253         1.649788
 C        -3.338204         0.747145         0.550976
 C        -2.569293         2.095660         0.229979
 C        -1.141229         1.801159        -0.142258
 O        -2.969463        -0.329828        -0.449613
 C        -1.803942        -0.616834         0.455087
 H         0.999723         0.980486         0.124890
 H        -0.578266         0.075776         2.912743
 H        -1.388793         1.571311         2.916255
 H        -3.265749        -0.650974         2.221874
 H        -4.411533         0.823977         0.638798
 H        -3.138893         2.820455        -0.291533
 H        -2.499902         2.630636         1.281546
 H        -1.097434         1.428152        -1.111263
 H        -0.499012         2.714984        -0.308374
 H        -1.517337        -1.771296         0.369644
