19
Iteration:   894charge 0 multiplicity 1
 O         0.585602         0.316097         0.656482
 C        -0.724111         0.624813         0.747091
 C        -1.250474         0.595478         2.276940
 C        -2.542176         0.037599         1.739367
 C        -3.296287         0.713502         0.541456
 C        -2.728942         2.045421         0.158692
 C        -1.227221         1.893877        -0.037268
 O        -2.872645        -0.273489        -0.466946
 C        -1.748490        -0.541109         0.476287
 H         1.256124         1.050296         0.821703
 H        -0.690134        -0.135895         2.873990
 H        -1.319427         1.439335         2.941620
 H        -3.333006        -0.508937         2.406276
 H        -4.433828         0.839512         0.684722
 H        -3.305408         2.619578        -0.734212
 H        -2.806740         2.714233         1.075264
 H        -0.890467         1.988622        -1.096472
 H        -0.702672         2.743444         0.289522
 H        -1.347834        -1.557980         0.308180
