19
Iteration:  4307
 O         0.689870         0.288758         0.483740
 C        -0.715235         0.656379         0.760520
 C        -1.276875         0.644736         2.257573
 C        -2.672258        -0.054800         1.747426
 C        -3.363754         0.679795         0.600627
 C        -2.708737         2.071865         0.111456
 C        -1.168228         1.891033         0.109471
 O        -2.840029        -0.218603        -0.433662
 C        -1.764791        -0.505038         0.487079
 H         1.203815         0.861665         1.168251
 H        -0.629325        -0.056065         2.834409
 H        -1.376047         1.549938         2.879516
 H        -3.298692        -0.636751         2.437865
 H        -4.454414         0.689864         0.449885
 H        -3.226568         2.494655        -0.720535
 H        -3.096413         2.718519         0.870850
 H        -0.940250         1.771642        -0.957504
 H        -0.692519         2.753875         0.404037
 H        -1.422450        -1.563834         0.372820
