19
Iteration:  2968
 O         0.645330         0.195684         0.637005
 C        -0.753357         0.646375         0.769814
 C        -1.384998         0.798918         2.241644
 C        -2.500803        -0.116316         1.669008
 C        -3.366526         0.645964         0.655392
 C        -2.704686         2.107495         0.313048
 C        -1.142998         1.911356        -0.049818
 O        -2.831779        -0.233785        -0.498216
 C        -1.762531        -0.529402         0.441225
 H         1.261142         0.940346         0.475837
 H        -0.758181         0.322217         3.032067
 H        -1.648672         1.856679         2.592501
 H        -3.281358        -0.842961         2.215321
 H        -4.447146         0.833085         0.607764
 H        -3.347493         2.418750        -0.534438
 H        -2.902910         2.857852         1.106146
 H        -1.019906         1.730301        -1.141681
 H        -0.534872         2.712540         0.330711
 H        -1.320639        -1.485209         0.050472
