19
Iteration:   511charge 0 multiplicity 1
 O         0.648758         0.429005         0.764027
 C        -0.740790         0.740328         0.764605
 C        -1.343952         0.645070         2.269978
 C        -2.561143        -0.115859         1.716903
 C        -3.277921         0.748278         0.514635
 C        -2.558179         2.094651         0.232530
 C        -1.130141         1.887517        -0.139917
 O        -2.971400        -0.350336        -0.430598
 C        -1.863753        -0.620309         0.461282
 H         1.041799         0.844197         0.029242
 H        -0.777554        -0.130959         2.889398
 H        -1.581536         1.597978         2.824088
 H        -3.133793        -0.780176         2.308978
 H        -4.383523         1.023701         0.490859
 H        -3.096824         2.581087        -0.622076
 H        -2.570960         2.802533         1.165106
 H        -1.088243         1.393045        -1.118846
 H        -0.569265         2.824095        -0.056904
 H        -1.346781        -1.655982         0.360319
