19
Iteration:   384charge 0 multiplicity 1
 O         0.611327         0.469988         0.539797
 C        -0.717033         0.559824         0.866496
 C        -1.266917         0.600586         2.262493
 C        -2.601286         0.033248         1.737860
 C        -3.379547         0.734288         0.545825
 C        -2.749571         2.070000         0.093787
 C        -1.175733         1.825065         0.074399
 O        -2.786397        -0.205078        -0.481484
 C        -1.765502        -0.563788         0.516623
 H         0.971211        -0.445091         0.872513
 H        -0.794489        -0.192291         2.944764
 H        -1.245971         1.592133         2.781500
 H        -3.160535        -0.618933         2.449378
 H        -4.444315         0.708987         0.504877
 H        -3.112684         2.199139        -0.904334
 H        -3.081900         2.966838         0.693467
 H        -0.797390         1.627043        -0.985883
 H        -0.517908         2.789791         0.409122
 H        -1.523709        -1.649016         0.565467
