19
Iteration:  3446charge 0 multiplicity 1
 O         0.593377         0.265771         0.477821
 C        -0.718565         0.631247         0.800861
 C        -1.281687         0.623398         2.301507
 C        -2.598748         0.065098         1.702746
 C        -3.302872         0.699945         0.463261
 C        -2.758998         2.068922         0.229291
 C        -1.216428         1.905982         0.087598
 O        -2.765547        -0.220319        -0.496564
 C        -1.778407        -0.565280         0.567983
 H         1.169604         1.117864         0.573606
 H        -0.849821        -0.187965         2.931761
 H        -1.126891         1.602128         2.721508
 H        -3.257846        -0.569111         2.298715
 H        -4.426381         0.614028         0.563270
 H        -3.179887         2.491720        -0.663322
 H        -3.072066         2.635642         1.158293
 H        -0.837276         1.668420        -0.931084
 H        -0.704923         2.708010         0.723216
 H        -1.466850        -1.645419         0.513568
