19
Iteration:  2457charge 0 multiplicity 1
 O         0.626949         0.390355         0.543026
 C        -0.781633         0.598802         0.750635
 C        -1.226008         0.617007         2.249582
 C        -2.584192         0.023566         1.804818
 C        -3.302139         0.717785         0.452398
 C        -2.767545         2.086576         0.157362
 C        -1.187971         1.895011         0.158902
 O        -2.822241        -0.285603        -0.439422
 C        -1.773493        -0.604008         0.528668
 H         0.720570         0.575088        -0.370127
 H        -0.832240        -0.260560         2.755464
 H        -1.182130         1.595146         2.744107
 H        -3.275205        -0.355354         2.492857
 H        -4.370089         0.527775         0.459536
 H        -3.266410         2.579863        -0.706615
 H        -2.933376         2.839539         0.918799
 H        -0.800538         1.858671        -0.928715
 H        -0.541409         2.849693         0.557689
 H        -1.294448        -1.588904         0.630809
