19
Iteration:  2317
 O         0.630314         0.283835         0.580465
 C        -0.750313         0.628091         0.772710
 C        -1.334955         0.718077         2.237872
 C        -2.461979        -0.100651         1.703641
 C        -3.271950         0.726067         0.669365
 C        -2.751929         1.976378         0.089715
 C        -1.165605         1.964256         0.117527
 O        -2.876305        -0.186747        -0.419425
 C        -1.773282        -0.591334         0.461375
 H         0.877511         0.580421        -0.422568
 H        -0.712230         0.192385         3.041337
 H        -1.699684         1.731494         2.454293
 H        -3.276007        -0.738850         2.310536
 H        -4.368079         0.654562         0.838553
 H        -3.144574         2.205507        -0.927520
 H        -3.086229         2.858402         0.783366
 H        -0.607865         2.159716        -0.780288
 H        -1.006670         2.821665         0.745349
 H        -1.292805        -1.557606         0.196725
