19
Iteration:  4955
 O         0.684893         0.380867         0.663811
 C        -0.739262         0.612006         0.787717
 C        -1.387161         0.647011         2.221028
 C        -2.566610        -0.057004         1.679872
 C        -3.348300         0.708618         0.530859
 C        -2.688809         2.105678         0.333689
 C        -1.083839         1.918193         0.028101
 O        -2.839666        -0.243565        -0.486875
 C        -1.842203        -0.642282         0.435567
 H         0.874088         0.594075        -0.242327
 H        -0.795771        -0.006467         2.863516
 H        -1.546679         1.679268         2.692200
 H        -3.345780        -0.733123         2.116696
 H        -4.465566         0.738054         0.669786
 H        -3.199121         2.600567        -0.553451
 H        -2.736874         2.953383         1.053955
 H        -0.820267         1.787009        -1.018478
 H        -0.522590         2.718388         0.437469
 H        -1.464221        -1.720231         0.389592
