19
Iteration:  4651
 O         0.608119         0.373312         0.756255
 C        -0.791681         0.610925         0.801413
 C        -1.185935         0.604131         2.241895
 C        -2.628910        -0.068150         1.680049
 C        -3.378136         0.739411         0.535435
 C        -2.711884         2.038155         0.253477
 C        -1.193802         1.812941        -0.054917
 O        -2.734510        -0.122966        -0.510198
 C        -1.820344        -0.525470         0.492875
 H         0.980773         0.407931        -0.068005
 H        -0.570332        -0.197039         2.636200
 H        -1.143905         1.488713         2.915527
 H        -3.304059        -0.632345         2.306659
 H        -4.456125         0.822561         0.629911
 H        -3.073696         2.573541        -0.627168
 H        -2.957205         2.647437         1.094667
 H        -1.384221         1.619807        -1.104811
 H        -0.449377         2.594097         0.076551
 H        -1.465658        -1.551561         0.245930
