19
Iteration:   501charge 0 multiplicity 1
 O         0.673860         0.478413         0.798535
 C        -0.727345         0.633364         0.780035
 C        -1.343983         0.647257         2.249301
 C        -2.590257        -0.031723         1.638262
 C        -3.343185         0.747703         0.557145
 C        -2.583282         2.094125         0.236031
 C        -1.144852         1.777061        -0.153792
 O        -2.962660        -0.318955        -0.451665
 C        -1.797617        -0.610446         0.455679
 H         1.036830         1.053477         0.083986
 H        -0.560322         0.060037         2.880178
 H        -1.375613         1.597123         2.886473
 H        -3.269068        -0.598060         2.188208
 H        -4.463089         0.773948         0.685854
 H        -3.145239         2.872383        -0.267403
 H        -2.508217         2.591354         1.335822
 H        -1.118568         1.434521        -1.134843
 H        -0.480000         2.651101        -0.281185
 H        -1.509459        -1.761003         0.363178
