19
Iteration:  3341charge 0 multiplicity 1
 O         0.652845         0.342651         0.595895
 C        -0.736632         0.576899         0.774940
 C        -1.255931         0.619194         2.162993
 C        -2.626905         0.039436         1.682953
 C        -3.348916         0.687571         0.524598
 C        -2.739780         2.141986         0.321455
 C        -1.165915         1.834756         0.037868
 O        -2.821921        -0.222632        -0.491147
 C        -1.782528        -0.590692         0.499146
 H         0.911675         1.142822         0.956294
 H        -0.894250        -0.062844         2.886403
 H        -1.216968         1.620849         2.658756
 H        -3.226861        -0.665548         2.352209
 H        -4.408118         0.555656         0.482345
 H        -3.079800         2.666037        -0.610661
 H        -2.993999         2.727510         1.204936
 H        -0.796182         1.638652        -0.935285
 H        -0.586485         2.689700         0.302101
 H        -1.499717        -1.629298         0.411225
