19
Iteration:  2338
 O         0.632392         0.388086         0.575974
 C        -0.780545         0.575102         0.766492
 C        -1.272176         0.676815         2.243002
 C        -2.555951        -0.068215         1.749547
 C        -3.316398         0.693736         0.556002
 C        -2.729150         2.118154         0.246312
 C        -1.170662         1.892134         0.045173
 O        -2.819700        -0.258752        -0.455287
 C        -1.813618        -0.585164         0.496337
 H         0.880913         0.804530        -0.213007
 H        -0.716889        -0.074493         2.861277
 H        -1.322818         1.682064         2.682704
 H        -3.110401        -0.727377         2.478317
 H        -4.396041         0.719018         0.408685
 H        -3.102123         2.397656        -0.790520
 H        -3.148628         2.985279         0.877055
 H        -0.892235         1.711146        -0.975888
 H        -0.541245         2.696252         0.502728
 H        -1.367599        -1.579888         0.445317
