19
Iteration:  1300charge 0 multiplicity 1
 O         0.564653         0.091295         0.538665
 C        -0.732540         0.620137         0.781724
 C        -1.294570         0.758145         2.194880
 C        -2.516957         0.030005         1.697919
 C        -3.326088         0.703542         0.534190
 C        -2.747549         2.039345         0.269500
 C        -1.261181         2.028946         0.145717
 O        -2.744085        -0.243095        -0.530481
 C        -1.704881        -0.566523         0.487259
 H         1.205464         0.731444         0.656795
 H        -0.864328         0.018288         2.770966
 H        -1.455463         1.749232         2.502792
 H        -3.233870        -0.384522         2.536265
 H        -4.385427         0.530001         0.517917
 H        -3.189980         2.407945        -0.763396
 H        -3.328378         2.773580         1.065974
 H        -0.970527         2.377611        -0.816662
 H        -0.899409         2.768795         0.904787
 H        -1.372396        -1.601965         0.587820
