19
Iteration:  4105
 O         0.655115         0.368006         0.663072
 C        -0.779875         0.625634         0.812990
 C        -1.259839         0.566222         2.288693
 C        -2.546873        -0.029675         1.656606
 C        -3.338668         0.749474         0.597509
 C        -2.692299         2.086093         0.218283
 C        -1.187249         1.814522        -0.013701
 O        -2.840158        -0.180915        -0.484779
 C        -1.798393        -0.511960         0.432281
 H         0.969254         0.989004         0.034372
 H        -0.798141        -0.185054         2.946619
 H        -1.500268         1.507001         2.912038
 H        -3.183372        -0.701870         2.270390
 H        -4.475370         0.735423         0.619374
 H        -3.203445         2.267519        -0.684560
 H        -2.831499         2.717343         1.112602
 H        -1.155151         1.306970        -0.966048
 H        -0.466497         2.636752        -0.034703
 H        -1.529213        -1.548865         0.465369
