19
Iteration:   752
 O         0.609190         0.342116         0.772558
 C        -0.733257         0.692833         0.798099
 C        -1.296190         0.667080         2.227616
 C        -2.482630        -0.067145         1.679889
 C        -3.296653         0.718836         0.613856
 C        -2.679622         2.041552         0.157987
 C        -1.220557         1.920171        -0.092901
 O        -2.891387        -0.238549        -0.430476
 C        -1.795881        -0.552895         0.454344
 H         0.720466        -0.006592        -0.096851
 H        -0.709396         0.023661         2.927008
 H        -1.606883         1.514849         2.822918
 H        -2.986441        -0.776059         2.302951
 H        -4.475697         0.656229         0.679743
 H        -3.299238         2.318603        -0.781141
 H        -2.664092         2.897475         0.846955
 H        -0.788797         1.684823        -1.151070
 H        -0.566287         2.884915         0.107012
 H        -1.427813        -1.579258         0.250395
