19
Iteration:  2986charge 0 multiplicity 1
 O         0.543465         0.272575         0.560465
 C        -0.752522         0.669934         0.808259
 C        -1.379271         0.641975         2.214161
 C        -2.525165        -0.066271         1.713436
 C        -3.256424         0.729431         0.538797
 C        -2.667497         2.093944         0.186987
 C        -1.145143         1.886969         0.050701
 O        -2.883947        -0.265895        -0.410253
 C        -1.743703        -0.572831         0.473380
 H         1.109746         1.073093         0.657189
 H        -0.736850         0.266078         2.977920
 H        -1.547498         1.556068         2.769158
 H        -3.077758        -0.775077         2.201303
 H        -4.327193         0.725305         0.624279
 H        -3.037230         2.527534        -0.709806
 H        -2.845492         2.750003         1.077578
 H        -0.975086         2.001147        -1.043797
 H        -0.704453         2.938019         0.326101
 H        -1.155003        -1.461359         0.323952
