19
Iteration:   700charge 0 multiplicity 1
 O         0.629338         0.366760         0.426554
 C        -0.759792         0.545655         0.811892
 C        -1.337541         0.797274         2.328332
 C        -2.631304         0.032101         1.738637
 C        -3.263537         0.702465         0.437639
 C        -2.730382         2.067877         0.206707
 C        -1.174649         1.895772         0.128828
 O        -2.701860        -0.296905        -0.497814
 C        -1.835461        -0.627605         0.644056
 H         0.610636         0.007795        -0.407997
 H        -0.931047         0.172202         3.186720
 H        -1.512860         1.900132         2.575413
 H        -3.388866        -0.370644         2.332860
 H        -4.389176         0.653626         0.488739
 H        -3.065139         2.468740        -0.674189
 H        -2.969737         2.706657         1.117477
 H        -0.862948         1.765248        -0.904653
 H        -0.625053         2.599801         0.787654
 H        -1.282841        -1.667646         0.518992
