19
Iteration:  4125
 O         0.589485         0.314219         0.622568
 C        -0.730306         0.580363         0.779540
 C        -1.372826         0.688677         2.263121
 C        -2.580303        -0.116666         1.741698
 C        -3.276624         0.749593         0.546489
 C        -2.692161         2.148464         0.287182
 C        -1.233369         1.889467        -0.036720
 O        -2.792578        -0.206623        -0.491874
 C        -1.724109        -0.611823         0.518955
 H         0.813351         0.628281        -0.350007
 H        -0.709496         0.067984         2.822452
 H        -1.584263         1.705960         2.722275
 H        -3.293150        -0.747831         2.351820
 H        -4.338892         0.730349         0.389030
 H        -3.158416         2.693046        -0.570926
 H        -2.711326         2.671730         1.247602
 H        -0.871956         1.755689        -1.040483
 H        -0.589641         2.721827         0.456173
 H        -1.365934        -1.571816         0.120877
