19
Iteration:  3465
 O         0.560406         0.336086         0.479428
 C        -0.775696         0.599147         0.849722
 C        -1.320620         0.602114         2.318830
 C        -2.552711        -0.136459         1.723679
 C        -3.343476         0.751656         0.570467
 C        -2.680449         2.194957         0.142374
 C        -1.162515         1.905383         0.060152
 O        -2.766503        -0.270682        -0.441661
 C        -1.789236        -0.567765         0.512748
 H         0.953250         1.229803         0.518148
 H        -0.624044        -0.033346         2.910721
 H        -1.555775         1.499071         2.860231
 H        -3.210993        -0.627109         2.391293
 H        -4.426931         0.764743         0.325199
 H        -3.059647         2.436975        -0.869353
 H        -2.790793         2.949816         0.911627
 H        -1.133152         1.708519        -1.040514
 H        -0.445875         2.669080         0.439409
 H        -1.289259        -1.522332         0.251149
