19
Iteration:   954
 O         0.599218         0.290721         0.661233
 C        -0.711028         0.664136         0.763248
 C        -1.295948         0.744938         2.204775
 C        -2.586830        -0.050389         1.717512
 C        -3.319687         0.650430         0.544647
 C        -2.699303         2.086983         0.284110
 C        -1.193399         1.882012        -0.039389
 O        -2.839688        -0.265668        -0.492366
 C        -1.780961        -0.569438         0.472072
 H         1.227555         1.092457         0.456363
 H        -0.717889         0.045808         2.824330
 H        -1.450958         1.749335         2.678880
 H        -3.106359        -0.693256         2.328469
 H        -4.375765         0.762965         0.606289
 H        -3.202364         2.632942        -0.455696
 H        -2.797698         2.649651         1.256008
 H        -1.126600         1.604320        -1.077992
 H        -0.574456         2.745467         0.333563
 H        -1.360515        -1.584625         0.419244
