19
Iteration:  4696charge 0 multiplicity 1
 O         0.703173         0.379687         0.647493
 C        -0.726024         0.627093         0.786187
 C        -1.344389         0.619720         2.233693
 C        -2.626082        -0.053797         1.711333
 C        -3.358872         0.663978         0.536458
 C        -2.641165         2.024994         0.236308
 C        -1.060729         1.947853         0.133546
 O        -2.965213        -0.259618        -0.507376
 C        -1.838612        -0.517720         0.443561
 H         1.015246         0.560059        -0.186052
 H        -0.852340        -0.041886         2.986652
 H        -1.310212         1.686618         2.600413
 H        -3.124537        -0.878485         2.288186
 H        -4.439061         0.826644         0.407499
 H        -2.989658         2.363095        -0.763434
 H        -2.816246         2.907888         0.862087
 H        -0.645794         1.825283        -0.946233
 H        -0.592152         2.866682         0.583626
 H        -1.284017        -1.468541         0.395002
