19
Iteration:  2051
 O         0.627674         0.388479         0.600201
 C        -0.735459         0.638902         0.784798
 C        -1.265364         0.537642         2.311525
 C        -2.551844        -0.022955         1.762952
 C        -3.306770         0.716800         0.512046
 C        -2.740444         2.060237         0.142657
 C        -1.180760         1.889428        -0.018777
 O        -2.865455        -0.238328        -0.460709
 C        -1.766436        -0.560344         0.558940
 H         0.906718         0.702722        -0.231852
 H        -0.633416        -0.147826         2.920612
 H        -1.343067         1.645234         2.808523
 H        -3.334505        -0.485331         2.298418
 H        -4.382961         0.677346         0.581926
 H        -3.294134         2.533822        -0.741610
 H        -2.986295         2.850007         0.911203
 H        -0.850396         1.767987        -1.004447
 H        -0.680799         2.818366         0.386867
 H        -1.406446        -1.567955         0.629110
