19
Iteration:  1115charge 0 multiplicity 1
 O         0.624597         0.301440         0.579097
 C        -0.747100         0.689657         0.768057
 C        -1.308223         0.661614         2.276259
 C        -2.540204         0.020018         1.657678
 C        -3.335205         0.737584         0.563854
 C        -2.711599         2.028940         0.192271
 C        -1.171730         1.893951        -0.002854
 O        -2.860987        -0.305746        -0.381295
 C        -1.763974        -0.549458         0.442129
 H         1.163761         1.015227         1.108311
 H        -0.670802        -0.108067         2.672094
 H        -1.395264         1.591495         2.813324
 H        -3.199446        -0.653476         2.290853
 H        -4.466409         0.723591         0.612589
 H        -3.266916         2.405900        -0.690026
 H        -2.916220         2.731140         0.863256
 H        -0.851192         1.709154        -0.993017
 H        -0.693880         2.805186         0.414599
 H        -1.362122        -1.626494         0.409016
