19
Iteration:   646charge 0 multiplicity 1
 O         0.691697         0.324944         0.932437
 C        -0.710776         0.580378         0.741942
 C        -1.213203         0.719285         2.108075
 C        -2.494301        -0.013263         1.751005
 C        -3.390525         0.710204         0.588521
 C        -2.789682         2.047873         0.209028
 C        -1.261325         1.814585        -0.137610
 O        -2.884592        -0.189534        -0.482380
 C        -1.799103        -0.561967         0.402029
 H         1.192859         0.889794         0.439289
 H        -0.746073        -0.108529         2.790760
 H        -1.021154         1.691778         2.696585
 H        -2.961548        -0.613889         2.538826
 H        -4.468049         0.740407         0.748546
 H        -3.150269         2.427113        -0.752001
 H        -2.917921         2.967120         0.960223
 H        -1.285322         1.554603        -1.174058
 H        -0.571615         2.717857        -0.120434
 H        -1.456031        -1.683376         0.162295
