19
Iteration:   828
 O         0.504957         0.268118         0.473073
 C        -0.748910         0.680588         0.823270
 C        -1.320174         0.627668         2.326713
 C        -2.598655        -0.014833         1.733572
 C        -3.308424         0.735542         0.482994
 C        -2.723370         2.089172         0.199993
 C        -1.212721         1.883625         0.038096
 O        -2.701332        -0.290127        -0.442425
 C        -1.747865        -0.538286         0.571502
 H         1.165470         1.039003         0.550369
 H        -0.728604        -0.010912         2.999015
 H        -1.307700         1.607843         2.743590
 H        -3.246199        -0.629942         2.415268
 H        -4.453114         0.642417         0.452628
 H        -3.001259         2.564787        -0.887824
 H        -3.047820         2.920064         0.871677
 H        -0.999658         1.722776        -1.068073
 H        -0.523977         2.711650         0.207831
 H        -1.172672        -1.468630         0.548258
