19
Iteration:  3361charge 0 multiplicity 1
 O         0.721963         0.336985         0.681593
 C        -0.720901         0.639497         0.745963
 C        -1.309938         0.590417         2.286976
 C        -2.528884        -0.039781         1.672823
 C        -3.328480         0.805260         0.565706
 C        -2.729568         2.066137         0.269641
 C        -1.285497         1.811172        -0.064574
 O        -2.862241        -0.186521        -0.527586
 C        -1.796291        -0.633674         0.493350
 H         1.148440         1.084229         1.100826
 H        -0.668903        -0.184761         2.783856
 H        -1.327096         1.630077         2.790086
 H        -3.196537        -0.645946         2.381292
 H        -4.406918         0.931564         0.544668
 H        -3.179641         2.706041        -0.509301
 H        -2.780179         2.795312         1.120109
 H        -1.133093         1.669171        -1.130667
 H        -0.726275         2.700807         0.074363
 H        -1.465817        -1.650639         0.177140
