19
Iteration:  3748
 O         0.635340         0.305444         0.669898
 C        -0.727201         0.562606         0.753618
 C        -1.266924         0.623685         2.234644
 C        -2.526909        -0.021267         1.679314
 C        -3.336640         0.729217         0.542517
 C        -2.815511         2.101992         0.176919
 C        -1.228095         1.977303         0.052195
 O        -2.788462        -0.188696        -0.417882
 C        -1.754449        -0.557812         0.502619
 H         0.855712        -0.402264        -0.010612
 H        -0.950386        -0.196642         2.964041
 H        -1.338812         1.617641         2.715164
 H        -3.136602        -0.766777         2.169452
 H        -4.374666         0.804017         0.658638
 H        -3.230973         2.190761        -0.875470
 H        -3.012886         2.847432         0.932333
 H        -0.957477         1.842793        -1.040448
 H        -0.772133         2.928695         0.409239
 H        -1.136204        -1.400127         0.188636
