19
Iteration:   693
 O         0.602603         0.377110         0.446284
 C        -0.776419         0.582264         0.806572
 C        -1.368108         0.776929         2.325454
 C        -2.639361         0.029936         1.735826
 C        -3.298951         0.654157         0.452542
 C        -2.670437         2.103747         0.245794
 C        -1.127640         1.860039         0.117686
 O        -2.720300        -0.317517        -0.456061
 C        -1.801135        -0.611426         0.587651
 H         0.615984         0.149221        -0.508710
 H        -0.865915         0.268842         3.114195
 H        -1.623712         1.784648         2.664832
 H        -3.421895        -0.526377         2.449927
 H        -4.326099         0.676361         0.356482
 H        -3.115417         2.428553        -0.821821
 H        -2.882228         2.936971         0.954240
 H        -0.930696         1.817863        -0.942274
 H        -0.486226         2.581935         0.572931
 H        -1.266867        -1.505999         0.497992
