19
Iteration:  2684charge 0 multiplicity 1
 O         0.627618         0.351467         0.635239
 C        -0.747956         0.629141         0.807142
 C        -1.240479         0.590327         2.240839
 C        -2.588581        -0.046644         1.677766
 C        -3.381672         0.773467         0.562754
 C        -2.708444         2.128254         0.252173
 C        -1.248085         1.791045        -0.117939
 O        -2.777718        -0.267672        -0.474480
 C        -1.782071        -0.512677         0.530923
 H         1.165045         1.263603         0.675792
 H        -0.695643        -0.189186         2.791078
 H        -1.026548         1.478761         2.887604
 H        -3.305269        -0.646165         2.342277
 H        -4.498895         0.695383         0.460913
 H        -3.348783         2.777558        -0.417091
 H        -2.745645         2.649444         1.239873
 H        -1.234338         1.435231        -1.166044
 H        -0.606431         2.795701         0.085337
 H        -1.310668        -1.523271         0.518815
