19
Iteration:  2876
 O         0.621980         0.233277         0.563623
 C        -0.712348         0.604098         0.767786
 C        -1.294079         0.640238         2.186533
 C        -2.545899        -0.006398         1.706906
 C        -3.310162         0.740268         0.557044
 C        -2.762665         2.057858         0.168205
 C        -1.211709         1.942105         0.138422
 O        -2.820469        -0.209134        -0.464270
 C        -1.810547        -0.588034         0.499383
 H         1.165830         0.962375         0.557787
 H        -0.651952         0.239131         3.043053
 H        -1.472397         1.633300         2.714560
 H        -2.936570        -0.771933         2.361757
 H        -4.376097         0.533313         0.687946
 H        -3.140674         2.382443        -0.815845
 H        -3.047534         2.913324         0.857428
 H        -1.015518         1.973150        -0.972619
 H        -0.769283         2.856883         0.769041
 H        -1.189237        -1.481578         0.348632
