19
Iteration:  1142
 O         0.632203         0.333817         0.421107
 C        -0.714228         0.590829         0.793992
 C        -1.212865         0.617191         2.276745
 C        -2.645775         0.114538         1.740767
 C        -3.350242         0.766523         0.425243
 C        -2.770810         2.068795         0.120264
 C        -1.202154         1.882995         0.208725
 O        -2.778529        -0.334632        -0.437832
 C        -1.793675        -0.617230         0.594295
 H         1.215520         1.133684         0.775383
 H        -0.519019        -0.095056         2.865239
 H        -1.277846         1.673019         2.760702
 H        -3.291248        -0.470019         2.369179
 H        -4.423847         0.704052         0.276750
 H        -3.216606         2.502372        -0.764909
 H        -3.274430         2.938874         0.885678
 H        -0.760293         1.793052        -0.848949
 H        -0.716374         2.707517         0.725221
 H        -1.492743        -1.650213         0.732381
