19
Iteration:   476
 O         0.719714         0.447659         0.800388
 C        -0.718495         0.525971         0.733109
 C        -1.288025         0.696433         2.148557
 C        -2.616445        -0.003260         1.713590
 C        -3.372682         0.736789         0.551980
 C        -2.677251         2.069317         0.311352
 C        -1.296805         1.700095        -0.063082
 O        -2.755251        -0.128700        -0.492893
 C        -1.831936        -0.651198         0.496013
 H         1.094316         0.854623         0.087124
 H        -0.707119         0.071024         2.827603
 H        -1.242560         1.704983         2.566372
 H        -3.158505        -0.592464         2.513400
 H        -4.494727         0.738616         0.339025
 H        -3.199985         2.498005        -0.630366
 H        -2.766488         2.821486         1.085452
 H        -1.375597         1.345732        -1.189242
 H        -0.682687         2.540125        -0.162092
 H        -1.648857        -1.656108         0.392530
