19
Iteration:  3754charge 0 multiplicity 1
 O         0.675924         0.292022         0.667975
 C        -0.722699         0.619585         0.730631
 C        -1.244230         0.667856         2.238446
 C        -2.599648        -0.028810         1.639932
 C        -3.350677         0.710443         0.536598
 C        -2.787433         2.059636         0.205035
 C        -1.240323         1.941708         0.050453
 O        -2.783845        -0.180120        -0.441480
 C        -1.757785        -0.534453         0.524395
 H         0.851491        -0.345068         0.060796
 H        -0.845074        -0.111424         2.836125
 H        -1.200638         1.563836         2.875011
 H        -3.180474        -0.696539         2.372214
 H        -4.526265         0.632757         0.572600
 H        -3.093678         2.423203        -0.766310
 H        -2.989364         2.824679         1.009300
 H        -1.208761         1.704608        -0.999960
 H        -0.747717         2.803288         0.517196
 H        -1.270576        -1.498075         0.233768
