19
Iteration:  2276charge 0 multiplicity 1
 O         0.644931         0.365939         0.693451
 C        -0.741895         0.679092         0.778507
 C        -1.229046         0.610562         2.194217
 C        -2.529460         0.009925         1.701602
 C        -3.250068         0.708462         0.487991
 C        -2.783240         2.092801         0.217523
 C        -1.242544         1.930062        -0.016215
 O        -2.869477        -0.298147        -0.445550
 C        -1.814959        -0.557290         0.486549
 H         0.796374         0.126356        -0.160265
 H        -0.681537        -0.229407         2.727584
 H        -1.147771         1.493209         2.838098
 H        -3.090908        -0.609422         2.475054
 H        -4.349280         0.740531         0.740033
 H        -3.465234         2.559907        -0.388329
 H        -2.771741         2.397258         1.207170
 H        -0.888487         1.952388        -1.088362
 H        -0.657876         2.734306         0.388311
 H        -1.433013        -1.612331         0.529125
