19
Iteration:    16
 O         0.650173         0.517208         0.646084
 C        -0.774322         0.568769         0.789807
 C        -1.402687         0.651936         2.236028
 C        -2.610591        -0.109855         1.685496
 C        -3.242515         0.845923         0.621583
 C        -2.621645         2.167530         0.338237
 C        -1.283173         1.724819        -0.153332
 O        -2.791909        -0.232089        -0.449673
 C        -1.714432        -0.649903         0.455903
 H         0.951509        -0.473053         0.896024
 H        -0.819508         0.329312         3.080199
 H        -1.622221         1.698490         2.520845
 H        -3.392848        -0.645889         2.248419
 H        -4.354849         0.879184         0.613897
 H        -3.215423         2.570317        -0.672057
 H        -2.657410         2.906347         1.130282
 H        -1.453605         1.143586        -1.193690
 H        -0.480204         2.529720        -0.209126
 H        -1.266436        -1.565200         0.198746
