19
Iteration:  1005
 O         0.594111         0.305825         0.428794
 C        -0.742521         0.602318         0.823675
 C        -1.292142         0.647316         2.309859
 C        -2.526790        -0.017172         1.726655
 C        -3.391909         0.746052         0.518136
 C        -2.716097         2.004349         0.046091
 C        -1.168070         1.924971         0.225620
 O        -2.791003        -0.259541        -0.433040
 C        -1.806523        -0.533047         0.559594
 H         0.979128         1.112299         0.205179
 H        -0.783107        -0.038493         3.000308
 H        -1.146387         1.606103         2.789520
 H        -3.235492        -0.624121         2.440131
 H        -4.523551         0.832637         0.722742
 H        -2.814279         1.937527        -1.121659
 H        -3.234795         3.001172         0.376296
 H        -0.755395         2.104280        -0.761384
 H        -0.768232         2.662477         0.927350
 H        -1.216683        -1.522049         0.409079
