19
Iteration:  2721
 O         0.546345         0.258368         0.472009
 C        -0.765462         0.594708         0.787232
 C        -1.305245         0.766238         2.241970
 C        -2.576195        -0.074819         1.669864
 C        -3.343108         0.768330         0.546758
 C        -2.765824         2.061758         0.265557
 C        -1.184413         1.878401         0.123951
 O        -2.732141        -0.265998        -0.471021
 C        -1.736748        -0.556255         0.515105
 H         1.157092         1.061570         0.661689
 H        -0.842779         0.103871         3.033702
 H        -1.398283         1.876811         2.427026
 H        -3.086819        -0.773273         2.272647
 H        -4.432103         0.773255         0.664654
 H        -3.178860         2.374042        -0.753031
 H        -2.786355         2.710524         1.164621
 H        -0.735182         1.918391        -0.895734
 H        -0.669011         2.684241         0.531061
 H        -1.310052        -1.559352         0.503182
