19
Iteration:  2262
 O         0.658707         0.476004         0.662580
 C        -0.756185         0.553264         0.724665
 C        -1.305619         0.642926         2.209494
 C        -2.572081         0.009156         1.694017
 C        -3.321525         0.727098         0.573698
 C        -2.710163         2.153785         0.364808
 C        -1.238687         1.829225        -0.077063
 O        -2.792037        -0.261635        -0.496495
 C        -1.772298        -0.653955         0.542153
 H         0.944418         0.271902        -0.317523
 H        -0.734480        -0.142610         2.794884
 H        -1.313018         1.587209         2.798258
 H        -3.283887        -0.645193         2.331564
 H        -4.419136         0.654735         0.523666
 H        -3.136757         2.730039        -0.454377
 H        -2.866427         2.821282         1.223568
 H        -1.284487         1.565804        -1.100342
 H        -0.548542         2.624701         0.133086
 H        -1.478065        -1.714152         0.470402
