19
Iteration:  1994charge 0 multiplicity 1
 O         0.648106         0.305709         0.591017
 C        -0.738734         0.723385         0.838223
 C        -1.386727         0.789565         2.231737
 C        -2.559389        -0.132640         1.756450
 C        -3.296387         0.682780         0.612345
 C        -2.662603         2.056659         0.228925
 C        -1.177654         1.950883         0.028816
 O        -2.813426        -0.237995        -0.498269
 C        -1.782855        -0.628203         0.441006
 H         0.534275        -0.254430        -0.293766
 H        -0.670447         0.217336         2.918477
 H        -1.527266         1.834013         2.754568
 H        -3.331680        -0.633722         2.315424
 H        -4.382695         0.640935         0.693084
 H        -3.188313         2.428095        -0.762808
 H        -2.846901         2.721379         1.103164
 H        -0.947076         1.734671        -1.031508
 H        -0.733205         2.895365         0.339711
 H        -1.379722        -1.658010         0.271054
