19
Iteration:   907charge 0 multiplicity 1
 O         0.624657         0.388988         0.638211
 C        -0.806578         0.640576         0.789932
 C        -1.284447         0.598806         2.264821
 C        -2.577558        -0.052952         1.704994
 C        -3.304787         0.772146         0.557723
 C        -2.664180         2.101341         0.258431
 C        -1.197215         1.807553        -0.127975
 O        -2.787673        -0.223196        -0.441505
 C        -1.823090        -0.596729         0.485929
 H         0.915513         1.262508         0.826190
 H        -0.673492        -0.176462         2.714993
 H        -1.343639         1.503539         2.848051
 H        -3.188440        -0.623389         2.335821
 H        -4.442880         0.719753         0.510523
 H        -3.240458         2.562859        -0.634030
 H        -2.816797         2.811613         1.167388
 H        -1.199320         1.292102        -1.061894
 H        -0.578192         2.674929        -0.001870
 H        -1.304329        -1.612787         0.378744
