19
Iteration:   687charge 0 multiplicity 1
 O         0.578721         0.367102         0.494034
 C        -0.783703         0.625145         0.819413
 C        -1.415943         0.738199         2.276033
 C        -2.642379        -0.000683         1.740035
 C        -3.326840         0.671326         0.500043
 C        -2.613399         2.122692         0.231364
 C        -1.127985         1.834129         0.091456
 O        -2.743487        -0.333718        -0.415771
 C        -1.737482        -0.569312         0.539630
 H         0.579650         0.357474        -0.558005
 H        -0.788075         0.218076         3.058297
 H        -1.566310         1.754077         2.705756
 H        -3.164220        -0.610119         2.391951
 H        -4.480334         0.675447         0.248405
 H        -3.021470         2.440267        -0.676714
 H        -2.949396         2.956041         0.860329
 H        -0.879797         1.850275        -1.027684
 H        -0.411371         2.717782         0.284036
 H        -1.283550        -1.639314         0.530385
