19
Iteration:  1512charge 0 multiplicity 1
 O         0.668383         0.295113         0.722460
 C        -0.721094         0.641128         0.718266
 C        -1.354330         0.679506         2.203388
 C        -2.506645        -0.136172         1.713078
 C        -3.393888         0.769746         0.567121
 C        -2.664817         2.066318         0.332180
 C        -1.207440         1.848038        -0.133895
 O        -2.861257        -0.178833        -0.484895
 C        -1.752608        -0.537331         0.420367
 H         1.072732         0.531016         1.575877
 H        -0.700251         0.091340         2.887318
 H        -1.677601         1.741452         2.716448
 H        -3.226554        -0.714238         2.190131
 H        -4.489129         0.690955         0.708219
 H        -3.247072         2.853314        -0.278133
 H        -2.691566         2.596551         1.280045
 H        -1.206736         1.629796        -1.210596
 H        -0.486581         2.581299        -0.072445
 H        -1.424918        -1.521725        -0.010825
