19
Iteration:  2448charge 0 multiplicity 1
 O         0.631218         0.330884         0.595320
 C        -0.789154         0.617344         0.728282
 C        -1.236478         0.625155         2.255918
 C        -2.571086         0.069014         1.721028
 C        -3.287586         0.659500         0.512132
 C        -2.757209         2.126848         0.163616
 C        -1.200884         1.956523         0.081636
 O        -2.873943        -0.328857        -0.413557
 C        -1.706789        -0.520560         0.505261
 H         0.920437         0.402990        -0.299683
 H        -0.809887        -0.264669         2.790181
 H        -1.024451         1.357884         3.011081
 H        -3.285449        -0.465663         2.444747
 H        -4.368169         0.620689         0.575287
 H        -3.134101         2.459565        -0.821301
 H        -3.275051         2.708598         0.987409
 H        -0.911495         1.928832        -0.946649
 H        -0.688645         2.674821         0.782907
 H        -1.324864        -1.543793         0.391773
