19
Iteration:   539charge 0 multiplicity 1
 O         0.609761         0.273026         0.704661
 C        -0.779656         0.596971         0.735286
 C        -1.257985         0.734547         2.250048
 C        -2.529018         0.007740         1.701529
 C        -3.356929         0.716894         0.597492
 C        -2.763424         2.042591         0.095953
 C        -1.201609         1.918272         0.088254
 O        -2.817246        -0.216805        -0.449365
 C        -1.718376        -0.565192         0.459497
 H         0.913497         0.147211        -0.137737
 H        -0.784801         0.033039         2.849981
 H        -1.365131         1.737470         2.580430
 H        -3.142063        -0.751367         2.342714
 H        -4.420858         0.761672         0.639770
 H        -3.124236         2.202011        -0.945295
 H        -2.885330         2.857338         0.689886
 H        -0.771897         1.797552        -0.939359
 H        -0.811380         2.746680         0.676462
 H        -1.379994        -1.535484         0.466111
