19
Iteration:    10
 O         0.636314         0.459772         0.610237
 C        -0.763511         0.595350         0.787873
 C        -1.370915         0.645173         2.253226
 C        -2.609791        -0.052604         1.683329
 C        -3.278732         0.792408         0.577228
 C        -2.647814         2.124839         0.274490
 C        -1.247796         1.759671        -0.070136
 O        -2.790621        -0.240774        -0.441850
 C        -1.725384        -0.609602         0.475585
 H         0.842030        -0.385437         1.010883
 H        -0.636789         0.175206         3.011855
 H        -1.509981         1.739574         2.382279
 H        -3.353657        -0.579111         2.293227
 H        -4.354221         0.905383         0.570172
 H        -3.175018         2.442568        -0.496761
 H        -2.796869         2.928085         1.065865
 H        -1.296377         1.547305        -1.068358
 H        -0.675532         2.657549        -0.030439
 H        -1.219633        -1.676249         0.225847
