19
Iteration:   405charge 0 multiplicity 1
 O         0.683982         0.352093         0.572926
 C        -0.748749         0.583626         0.724779
 C        -1.287461         0.705586         2.264943
 C        -2.568347         0.019618         1.716955
 C        -3.324669         0.736356         0.507360
 C        -2.702827         2.069890         0.040961
 C        -1.239700         1.983378         0.181496
 O        -2.840779        -0.333491        -0.418063
 C        -1.777088        -0.601180         0.513035
 H         0.767416        -0.517173         0.340156
 H        -0.783892        -0.082061         2.942933
 H        -1.402978         1.746851         2.692736
 H        -3.287585        -0.524750         2.332919
 H        -4.360680         0.771785         0.714765
 H        -2.914063         2.373493        -0.937434
 H        -3.133112         2.815380         0.773516
 H        -0.731467         2.392914        -0.722144
 H        -0.855727         2.765036         1.020142
 H        -1.376069        -1.689795         0.403737
