19
Iteration:   130
 O         0.614397         0.199752         0.450504
 C        -0.793391         0.615087         0.848429
 C        -1.273879         0.627053         2.335997
 C        -2.619236         0.005456         1.786373
 C        -3.252867         0.745476         0.441389
 C        -2.773372         2.131579         0.044183
 C        -1.240166         1.974613         0.140170
 O        -2.732515        -0.313086        -0.424655
 C        -1.759327        -0.527337         0.559514
 H         0.969559         1.023499         0.028257
 H        -0.736770        -0.103454         3.092713
 H        -1.282585         1.697418         2.717003
 H        -3.318010        -0.669957         2.258349
 H        -4.312164         0.721424         0.381690
 H        -3.139878         2.646024        -0.796831
 H        -3.122779         2.757040         1.033107
 H        -0.776345         1.991160        -0.785086
 H        -0.893225         2.826609         0.729476
 H        -1.324490        -1.633396         0.489557
