19
Iteration:  2716
 O         0.580963         0.282331         0.481122
 C        -0.747458         0.579159         0.809341
 C        -1.292262         0.753740         2.245148
 C        -2.606096        -0.065774         1.612385
 C        -3.320547         0.739379         0.544338
 C        -2.733414         2.064417         0.273224
 C        -1.211467         1.878339         0.091657
 O        -2.765979        -0.253158        -0.481842
 C        -1.726467        -0.565094         0.558270
 H         1.189107         0.966188         0.628931
 H        -0.862134         0.087546         2.964426
 H        -1.253114         1.811564         2.488896
 H        -3.229460        -0.627885         2.389266
 H        -4.420795         0.632569         0.607297
 H        -3.241270         2.537180        -0.576970
 H        -2.889638         2.788870         1.088327
 H        -0.996331         1.820654        -0.994549
 H        -0.687452         2.827737         0.639954
 H        -1.371777        -1.612740         0.592868
