19
Iteration:  3092charge 0 multiplicity 1
 O         0.658066         0.217083         0.753536
 C        -0.741571         0.677039         0.756149
 C        -1.263126         0.677679         2.205173
 C        -2.549289        -0.059238         1.654812
 C        -3.301142         0.698931         0.551968
 C        -2.745486         2.111432         0.320324
 C        -1.225093         1.859628        -0.086545
 O        -2.838437        -0.192403        -0.491655
 C        -1.771216        -0.552157         0.421794
 H         1.187986         0.972018         0.687770
 H        -0.721749         0.117812         3.001137
 H        -1.594997         1.684158         2.410689
 H        -3.183689        -0.648813         2.347059
 H        -4.442876         0.671009         0.699217
 H        -3.305373         2.664418        -0.495362
 H        -2.847917         2.718556         1.224884
 H        -1.317039         1.636584        -1.142441
 H        -0.690254         2.720922         0.178052
 H        -1.406696        -1.581008         0.451281
