19
Iteration:  1697
 O         0.658750         0.340377         0.546747
 C        -0.757423         0.565010         0.792535
 C        -1.228256         0.611763         2.225072
 C        -2.574854         0.025285         1.683486
 C        -3.329456         0.702949         0.500623
 C        -2.775183         2.107356         0.217357
 C        -1.273471         1.771899         0.084167
 O        -2.805067        -0.163199        -0.493887
 C        -1.773201        -0.543426         0.529862
 H         1.272304         0.854785         1.243173
 H        -0.921553        -0.233624         2.890077
 H        -1.156412         1.545000         2.803806
 H        -3.324564        -0.484109         2.241702
 H        -4.397115         0.542728         0.656054
 H        -3.047463         2.813943        -0.664807
 H        -2.903670         2.726325         1.146480
 H        -0.974729         1.689403        -1.059404
 H        -0.635423         2.728264         0.442370
 H        -1.405126        -1.592432         0.485165
