19
Iteration:  2494charge 0 multiplicity 1
 O         0.659819         0.361541         0.573521
 C        -0.716271         0.583573         0.821153
 C        -1.395193         0.669513         2.221495
 C        -2.545437        -0.022099         1.739203
 C        -3.332998         0.687801         0.566133
 C        -2.739394         2.091583         0.255598
 C        -1.209453         1.786981        -0.022185
 O        -2.809094        -0.171486        -0.451671
 C        -1.745382        -0.583055         0.518671
 H         0.896689         0.749101        -0.321910
 H        -0.723221         0.243902         2.974079
 H        -1.465654         1.678281         2.588765
 H        -3.180215        -0.606813         2.545783
 H        -4.420676         0.720843         0.572704
 H        -3.230614         2.582688        -0.595448
 H        -2.748856         2.729730         1.202856
 H        -1.138447         1.443424        -1.015372
 H        -0.601969         2.601879         0.163322
 H        -1.164129        -1.440902         0.176745
