19
Iteration:  4680
 O         0.688912         0.413982         0.719418
 C        -0.713281         0.586640         0.799054
 C        -1.316440         0.582225         2.220780
 C        -2.573821        -0.045561         1.597640
 C        -3.294605         0.819515         0.550219
 C        -2.703015         2.104752         0.171120
 C        -1.167014         1.892636         0.069720
 O        -2.884636        -0.256238        -0.416459
 C        -1.820081        -0.659540         0.442481
 H         0.953988         0.592502        -0.185314
 H        -0.743202        -0.159847         2.758354
 H        -1.501176         1.411622         2.865958
 H        -3.301110        -0.554414         2.207006
 H        -4.369127         0.917325         0.770725
 H        -3.071123         2.526943        -0.770417
 H        -2.975508         2.779687         1.029883
 H        -1.015293         1.971745        -1.060998
 H        -0.577490         2.658054         0.555624
 H        -1.582139        -1.719494         0.213651
