19
Iteration:  4142
 O         0.620889         0.280712         0.630906
 C        -0.771783         0.637944         0.730824
 C        -1.355914         0.722613         2.152581
 C        -2.580615        -0.009518         1.639906
 C        -3.329378         0.679673         0.512031
 C        -2.714709         2.064958         0.393653
 C        -1.153463         1.926814         0.097926
 O        -2.728866        -0.249970        -0.472364
 C        -1.824185        -0.582828         0.493085
 H         0.848475         0.094820        -0.332842
 H        -0.806444         0.074341         2.901916
 H        -1.385480         1.784371         2.423981
 H        -3.094868        -0.625256         2.343235
 H        -4.447099         0.679303         0.628022
 H        -3.082523         2.713833        -0.462274
 H        -3.054635         2.737487         1.198046
 H        -1.152371         1.910073        -1.033211
 H        -0.518173         2.704566         0.469459
 H        -1.192318        -1.528002         0.526799
