19
Iteration:  1123
 O         0.677222         0.321191         0.525335
 C        -0.752241         0.638678         0.804068
 C        -1.277892         0.644686         2.280745
 C        -2.570283         0.027345         1.676126
 C        -3.364659         0.682823         0.495311
 C        -2.690413         2.057686         0.169153
 C        -1.184769         1.934214         0.032260
 O        -2.874142        -0.339174        -0.435455
 C        -1.803099        -0.519840         0.543328
 H         1.212728         1.015832         1.013165
 H        -0.898371        -0.158246         2.906229
 H        -1.038854         1.508494         2.888820
 H        -3.196534        -0.544362         2.505426
 H        -4.421068         0.677503         0.672645
 H        -3.122655         2.465409        -0.788718
 H        -3.048145         2.833337         0.942510
 H        -0.814915         1.865005        -1.050379
 H        -0.739420         2.849815         0.463945
 H        -1.439403        -1.502861         0.425958
