19
Iteration:  4880
 O         0.562079         0.394671         0.664716
 C        -0.766126         0.535709         0.809141
 C        -1.284416         0.702747         2.238730
 C        -2.556205         0.022043         1.619690
 C        -3.337679         0.726385         0.497994
 C        -2.706712         2.135985         0.318978
 C        -1.169053         1.817538         0.069041
 O        -2.781288        -0.238161        -0.534509
 C        -1.760626        -0.637183         0.491311
 H         0.991495         0.184239        -0.273605
 H        -0.842519        -0.008489         2.908519
 H        -1.388238         1.735843         2.595917
 H        -3.270975        -0.617843         2.232579
 H        -4.447659         0.842912         0.507597
 H        -3.208447         2.887588        -0.342282
 H        -2.864992         2.570691         1.322248
 H        -1.054515         1.731140        -1.019972
 H        -0.581293         2.552752         0.513141
 H        -1.230906        -1.703916         0.372304
