19
Iteration:  2625
 O         0.638314         0.237738         0.643286
 C        -0.689290         0.607834         0.730807
 C        -1.330433         0.760011         2.215944
 C        -2.485747         0.001685         1.678025
 C        -3.345221         0.671445         0.551083
 C        -2.750709         2.037129         0.281103
 C        -1.216935         1.895737         0.045499
 O        -2.868611        -0.243484        -0.438401
 C        -1.744954        -0.525402         0.452839
 H         1.045862         0.868223         0.117334
 H        -0.816633        -0.039961         2.747000
 H        -1.433110         1.713283         2.669079
 H        -3.169214        -0.578300         2.441591
 H        -4.427947         0.745195         0.471471
 H        -3.162557         2.412111        -0.663600
 H        -3.198332         2.681952         1.086655
 H        -1.033814         1.961925        -1.058413
 H        -0.428718         2.766861         0.478440
 H        -1.306457        -1.511190         0.409010
