19
Iteration:   119
 O         0.504428         0.186039         0.375663
 C        -0.710273         0.640989         0.861320
 C        -1.296204         0.676056         2.367669
 C        -2.580885        -0.002824         1.683606
 C        -3.352360         0.728144         0.441991
 C        -2.753793         2.072670         0.093407
 C        -1.187154         2.020687         0.175172
 O        -2.702552        -0.285265        -0.437746
 C        -1.758375        -0.546228         0.630489
 H         1.139930         0.837967         0.334426
 H        -0.775484        -0.175814         2.985611
 H        -1.315560         1.642533         2.977264
 H        -3.198729        -0.607342         2.332864
 H        -4.414671         0.645680         0.432024
 H        -3.053228         2.192083        -0.917128
 H        -3.248325         2.975127         0.701575
 H        -0.767034         2.075281        -0.775818
 H        -0.722625         2.815498         0.749437
 H        -1.183176        -1.577930         0.560770
