19
Iteration:  3016
 O         0.630680         0.324861         0.498103
 C        -0.692472         0.546639         0.836635
 C        -1.224377         0.536074         2.232119
 C        -2.602336         0.109497         1.712290
 C        -3.374709         0.743699         0.503524
 C        -2.775760         2.069295         0.136363
 C        -1.220267         1.893934         0.104820
 O        -2.743725        -0.218327        -0.454475
 C        -1.817088        -0.579489         0.573901
 H         1.176555         1.065908         0.998627
 H        -0.857192        -0.308123         2.975245
 H        -0.993261         1.569576         2.728470
 H        -3.193105        -0.571597         2.322541
 H        -4.509629         0.728039         0.366905
 H        -3.143740         2.489913        -0.851777
 H        -3.097279         2.768354         0.912818
 H        -1.117386         1.796401        -0.974125
 H        -0.903297         2.856177         0.475361
 H        -1.441186        -1.622145         0.584061
