19
Iteration:   197
 O         0.612048         0.413812         0.886610
 C        -0.730162         0.674599         0.754160
 C        -1.348303         0.683283         2.231966
 C        -2.510304        -0.159189         1.619005
 C        -3.278905         0.750364         0.650722
 C        -2.645778         2.140106         0.277127
 C        -1.263713         1.805410        -0.236490
 O        -2.868675        -0.189690        -0.423427
 C        -1.750786        -0.575979         0.369848
 H         0.756286        -0.350605         0.253601
 H        -0.559475         0.036540         2.762538
 H        -1.560883         1.679805         2.682175
 H        -3.051723        -0.916530         2.143539
 H        -4.342938         0.804671         0.764413
 H        -3.339091         2.498379        -0.427860
 H        -2.629014         2.928157         1.197993
 H        -1.409376         1.318795        -1.156241
 H        -0.548463         2.537275        -0.467285
 H        -1.249368        -1.617939         0.288916
