19
Iteration:  2882charge 0 multiplicity 1
 O         0.632660         0.259714         0.519941
 C        -0.719623         0.591982         0.786473
 C        -1.323075         0.680596         2.272643
 C        -2.535159        -0.037617         1.734796
 C        -3.336345         0.702132         0.577886
 C        -2.725114         2.094259         0.169414
 C        -1.200577         1.917260         0.138074
 O        -2.845038        -0.236572        -0.515681
 C        -1.773530        -0.556063         0.484884
 H         1.075471         1.189641         0.567689
 H        -0.754650        -0.016306         2.881631
 H        -1.488114         1.714398         2.563979
 H        -3.090690        -0.712141         2.431387
 H        -4.444469         0.758167         0.699603
 H        -3.174365         2.316973        -0.824645
 H        -2.965487         2.905777         0.827224
 H        -0.888692         2.010790        -0.893935
 H        -0.610621         2.606512         0.673352
 H        -1.276321        -1.546281         0.467943
