19
Iteration:  2714
 O         0.594865         0.285973         0.484247
 C        -0.738474         0.579880         0.815688
 C        -1.291885         0.744108         2.241648
 C        -2.612676        -0.048647         1.608690
 C        -3.317160         0.716309         0.543396
 C        -2.719797         2.073014         0.273217
 C        -1.218399         1.885638         0.079751
 O        -2.777189        -0.247371        -0.484923
 C        -1.727402        -0.574351         0.566194
 H         1.201548         0.969833         0.630280
 H        -0.844111         0.087598         2.964539
 H        -1.228537         1.771941         2.562398
 H        -3.274863        -0.587379         2.404236
 H        -4.402944         0.601673         0.561683
 H        -3.238228         2.590325        -0.494712
 H        -2.959370         2.805006         1.062660
 H        -1.085443         1.788696        -0.994908
 H        -0.734716         2.766262         0.605895
 H        -1.380952        -1.614062         0.594548
