19
Iteration:   217charge 0 multiplicity 1
 O         0.609076         0.336993         0.762705
 C        -0.752503         0.661566         0.725093
 C        -1.293873         0.743695         2.233709
 C        -2.559387        -0.075498         1.761154
 C        -3.344866         0.707205         0.553978
 C        -2.727655         2.043822         0.269273
 C        -1.171326         1.816976        -0.119895
 O        -2.804581        -0.206101        -0.486319
 C        -1.773969        -0.531920         0.455905
 H         0.759689        -0.067683        -0.044842
 H        -0.754071        -0.055004         2.822242
 H        -1.452993         1.752196         2.671805
 H        -3.107316        -0.701307         2.444480
 H        -4.379559         0.710586         0.677058
 H        -3.193537         2.519565        -0.541114
 H        -2.831882         2.700718         1.234508
 H        -0.958252         1.714390        -1.171406
 H        -0.636246         2.788564         0.139136
 H        -1.210590        -1.526647         0.238340
