19
Iteration:   904charge 0 multiplicity 1
 O         0.615488         0.374576         0.644647
 C        -0.796432         0.632273         0.776353
 C        -1.259935         0.592420         2.278038
 C        -2.569153        -0.018194         1.706763
 C        -3.301199         0.764412         0.554428
 C        -2.683676         2.078726         0.247464
 C        -1.199738         1.835541        -0.108123
 O        -2.797256        -0.233913        -0.440677
 C        -1.812618        -0.596356         0.465959
 H         0.930220         1.265746         0.839564
 H        -0.633718        -0.200388         2.719927
 H        -1.450004         1.476033         2.881713
 H        -3.309550        -0.634611         2.445257
 H        -4.427663         0.805973         0.517375
 H        -3.268032         2.590655        -0.645624
 H        -2.791212         2.771964         1.084732
 H        -1.131360         1.360670        -1.150901
 H        -0.606971         2.701990         0.035386
 H        -1.304397        -1.539958         0.395771
