19
Iteration:  4532charge 0 multiplicity 1
 O         0.610963         0.411236         0.694158
 C        -0.788049         0.578543         0.771550
 C        -1.348593         0.641912         2.143617
 C        -2.578689        -0.091709         1.729484
 C        -3.342922         0.723499         0.536480
 C        -2.565373         2.090789         0.288365
 C        -1.158723         1.852803        -0.004052
 O        -2.798623        -0.205933        -0.494876
 C        -1.847294        -0.593056         0.514936
 H         0.818218         0.775503        -0.201939
 H        -0.728838        -0.014658         2.813149
 H        -1.521893         1.559615         2.778846
 H        -3.191659        -0.824291         2.240182
 H        -4.440474         0.767882         0.588942
 H        -2.995753         2.580729        -0.644576
 H        -2.762264         2.682573         1.207212
 H        -1.044521         1.886252        -1.056356
 H        -0.603896         2.734848         0.365300
 H        -1.345940        -1.551151         0.397869
