19
Iteration:  4110
 O         0.641865         0.355870         0.645236
 C        -0.816544         0.642712         0.821910
 C        -1.279727         0.579793         2.328902
 C        -2.544619        -0.060613         1.656595
 C        -3.345185         0.743337         0.576583
 C        -2.677985         2.102689         0.231532
 C        -1.163428         1.806467        -0.031603
 O        -2.802361        -0.186883        -0.486601
 C        -1.829283        -0.551262         0.425132
 H         0.998644         0.948796        -0.097497
 H        -0.839787        -0.052938         3.138546
 H        -1.376716         1.527338         2.801685
 H        -3.176768        -0.683648         2.268353
 H        -4.418054         0.736270         0.829215
 H        -3.281636         2.499996        -0.671946
 H        -2.803926         2.780615         1.093666
 H        -1.189988         1.520590        -1.144649
 H        -0.551519         2.727940         0.078866
 H        -1.285215        -1.550251         0.495933
