19
Iteration:  1752charge 0 multiplicity 1
 O         0.500137         0.216367         0.561268
 C        -0.783948         0.658229         0.773571
 C        -1.310054         0.705051         2.239789
 C        -2.532308        -0.093988         1.720507
 C        -3.296530         0.736162         0.560026
 C        -2.701197         2.075216         0.214446
 C        -1.121149         2.014427         0.191121
 O        -2.827411        -0.320324        -0.452204
 C        -1.743351        -0.554321         0.373975
 H         1.211980         0.975439         0.394606
 H        -0.701839         0.008179         2.921648
 H        -1.529048         1.759760         2.715904
 H        -3.227486        -0.730284         2.263899
 H        -4.394360         0.777623         0.508196
 H        -2.954428         2.343756        -0.886366
 H        -3.156622         2.909427         0.773149
 H        -0.701560         2.175092        -0.898789
 H        -0.561387         2.807479         0.846848
 H        -1.267563        -1.547745         0.172740
