19
Iteration:  3286
 O         0.580258         0.135870         0.561372
 C        -0.754177         0.675423         0.791077
 C        -1.267097         0.719077         2.271876
 C        -2.560818        -0.070427         1.675647
 C        -3.318495         0.708848         0.555190
 C        -2.752846         2.059301         0.240418
 C        -1.251898         1.907753         0.060209
 O        -2.737003        -0.175438        -0.462412
 C        -1.744799        -0.488454         0.478924
 H         1.128265         0.924197         0.502236
 H        -0.711927        -0.030969         2.785646
 H        -1.620344         1.654879         2.736787
 H        -3.162821        -0.899386         2.224727
 H        -4.390535         0.711543         0.472007
 H        -3.094054         2.525551        -0.711753
 H        -3.155037         2.787224         0.967904
 H        -0.885263         1.877929        -0.971096
 H        -0.804265         2.771038         0.632277
 H        -1.367638        -1.516739         0.334625
