19
Iteration:  1357charge 0 multiplicity 1
 O         0.648771         0.440658         0.647995
 C        -0.782318         0.587519         0.853330
 C        -1.314668         0.569660         2.295192
 C        -2.589232        -0.098013         1.733890
 C        -3.260645         0.770808         0.617234
 C        -2.642202         2.110858         0.230850
 C        -1.224599         1.813434        -0.165228
 O        -2.804343        -0.169616        -0.489535
 C        -1.839541        -0.609238         0.395536
 H         1.070217         1.279328         1.148307
 H        -0.728257        -0.171830         2.789146
 H        -1.277204         1.364150         2.896462
 H        -3.217463        -0.754148         2.394356
 H        -4.353726         0.813797         0.510718
 H        -3.301213         2.715687        -0.552952
 H        -2.849466         2.780704         1.166446
 H        -1.303571         1.318224        -1.102535
 H        -0.484595         2.624920        -0.280771
 H        -1.600316        -1.728861         0.400704
