19
Iteration:  4823
 O         0.621184         0.260401         0.734170
 C        -0.701944         0.639056         0.800446
 C        -1.224646         0.613285         2.193379
 C        -2.563929         0.026775         1.699286
 C        -3.359252         0.702240         0.569194
 C        -2.748186         2.113814         0.220760
 C        -1.252826         1.857292         0.107956
 O        -2.810080        -0.213643        -0.524239
 C        -1.803801        -0.498292         0.398396
 H         1.079954         0.563343        -0.006468
 H        -0.645910        -0.136783         2.705494
 H        -1.274848         1.474490         2.889826
 H        -3.216213        -0.694438         2.164903
 H        -4.443585         0.813723         0.618070
 H        -3.046969         2.322866        -0.822751
 H        -3.106020         2.914767         0.907017
 H        -0.988130         1.685735        -0.877010
 H        -0.631051         2.643834         0.387425
 H        -1.227445        -1.469171         0.245418
