19
Iteration:   759charge 0 multiplicity 1
 O         0.600339         0.388890         0.794037
 C        -0.757336         0.686860         0.756407
 C        -1.337400         0.693990         2.231874
 C        -2.450914        -0.118978         1.636256
 C        -3.315453         0.736188         0.638175
 C        -2.646792         2.061235         0.200609
 C        -1.138505         1.836758        -0.124418
 O        -2.934354        -0.224613        -0.398357
 C        -1.777790        -0.587685         0.429957
 H         0.970801         0.240563        -0.170046
 H        -0.807379         0.141468         2.978032
 H        -1.686432         1.618898         2.715400
 H        -3.145590        -0.833750         2.292361
 H        -4.349774         0.676579         0.800046
 H        -3.233912         2.434716        -0.750024
 H        -2.827774         2.917181         0.875866
 H        -0.857915         1.600557        -1.153331
 H        -0.635709         2.714872         0.142493
 H        -1.368402        -1.520749         0.160820
