19
Iteration:  4842charge 0 multiplicity 1
 O         0.671434         0.229669         0.602378
 C        -0.727194         0.617483         0.803070
 C        -1.333220         0.613954         2.371046
 C        -2.580787        -0.036345         1.652075
 C        -3.350281         0.757087         0.470107
 C        -2.789264         2.086912         0.197872
 C        -1.184564         1.944027         0.043558
 O        -2.787265        -0.170361        -0.486706
 C        -1.729883        -0.556808         0.527649
 H         0.775614         0.500680        -0.355925
 H        -0.920219        -0.147361         3.128375
 H        -1.414580         1.630910         2.872014
 H        -3.127691        -0.754282         2.261577
 H        -4.449947         0.630763         0.542198
 H        -3.347170         2.579838        -0.608272
 H        -2.941942         2.705709         1.146981
 H        -0.891713         1.710846        -1.009797
 H        -0.618679         2.890111         0.453442
 H        -1.239770        -1.496063         0.372373
