19
Iteration:  1235charge 0 multiplicity 1
 O         0.705657         0.464431         0.713978
 C        -0.732246         0.573923         0.764649
 C        -1.334547         0.593317         2.173932
 C        -2.606543        -0.075589         1.697814
 C        -3.379333         0.745421         0.544288
 C        -2.641319         2.096182         0.314745
 C        -1.202371         1.771353        -0.131280
 O        -2.871024        -0.173140        -0.450467
 C        -1.784280        -0.656073         0.476742
 H         1.074872         1.345682         0.752533
 H        -0.647115        -0.011108         2.729704
 H        -1.317289         1.591910         2.515743
 H        -3.147123        -0.697848         2.544872
 H        -4.470961         0.925435         0.521692
 H        -3.197789         2.787618        -0.433679
 H        -2.642746         2.840391         1.165640
 H        -1.126305         1.458055        -1.139662
 H        -0.459260         2.605623         0.021475
 H        -1.629489        -1.775332         0.452965
