19
Iteration:  2961
 O         0.658595         0.175897         0.666098
 C        -0.730663         0.647161         0.763467
 C        -1.380589         0.809559         2.212195
 C        -2.540910        -0.080510         1.721987
 C        -3.355131         0.645994         0.637476
 C        -2.745944         2.108299         0.352421
 C        -1.154968         1.838820        -0.058687
 O        -2.829238        -0.194639        -0.544820
 C        -1.770051        -0.534128         0.424737
 H         1.236627         1.028005         0.463556
 H        -0.606320         0.392680         2.949644
 H        -1.581877         1.808064         2.718837
 H        -3.076561        -0.867112         2.270797
 H        -4.519526         0.550815         0.691892
 H        -3.261279         2.445571        -0.610959
 H        -2.841806         2.842649         1.130287
 H        -1.101604         1.902783        -1.145809
 H        -0.572247         2.731046         0.210197
 H        -1.183262        -1.450331         0.175940
