19
Iteration:  1987charge 0 multiplicity 1
 O         0.643707         0.295738         0.657575
 C        -0.741993         0.775416         0.854484
 C        -1.348483         0.737870         2.217147
 C        -2.541134        -0.159316         1.702111
 C        -3.298814         0.698381         0.639153
 C        -2.704825         2.074512         0.256210
 C        -1.179710         1.884637        -0.019855
 O        -2.853440        -0.246366        -0.513259
 C        -1.770270        -0.554538         0.423806
 H         0.550032        -0.221723        -0.217012
 H        -0.647908         0.286521         2.839985
 H        -1.680217         1.751892         2.524465
 H        -3.197063        -0.658340         2.452248
 H        -4.388764         0.746297         0.738778
 H        -3.174493         2.341212        -0.590666
 H        -2.795917         2.844622         1.025788
 H        -0.954257         1.544276        -0.995055
 H        -0.541624         2.832605         0.162032
 H        -1.165700        -1.423745         0.316233
