19
Iteration:  1684
 O         0.629708         0.340713         0.617034
 C        -0.730357         0.590809         0.759438
 C        -1.312092         0.630173         2.216309
 C        -2.572664        -0.016802         1.671541
 C        -3.325520         0.773046         0.526626
 C        -2.723328         2.111225         0.335808
 C        -1.218717         1.838112        -0.068207
 O        -2.761026        -0.211466        -0.457266
 C        -1.817124        -0.629744         0.468922
 H         1.035528         0.871998         1.230149
 H        -0.625298        -0.039308         2.746765
 H        -1.414735         1.680729         2.758623
 H        -3.105052        -0.675285         2.325742
 H        -4.407614         0.775709         0.484166
 H        -3.374334         2.671959        -0.376855
 H        -2.821067         2.678829         1.309068
 H        -1.093856         1.639665        -1.156688
 H        -0.524618         2.734820         0.240661
 H        -1.544306        -1.655106         0.387673
