19
Iteration:  2545
 O         0.668758         0.362299         0.772602
 C        -0.711823         0.627961         0.715418
 C        -1.268523         0.728717         2.167800
 C        -2.508355        -0.092945         1.685908
 C        -3.360973         0.706552         0.604033
 C        -2.729358         2.059048         0.265511
 C        -1.226431         1.886897        -0.039057
 O        -2.868079        -0.239714        -0.391247
 C        -1.834114        -0.601419         0.379174
 H         1.006708         0.071742        -0.019791
 H        -0.502390         0.206251         2.807285
 H        -1.246304         1.763748         2.594405
 H        -3.106642        -0.694402         2.323096
 H        -4.443957         0.777429         0.493144
 H        -3.287670         2.616655        -0.545281
 H        -2.819155         2.844269         1.050871
 H        -1.115199         1.665073        -1.152235
 H        -0.641093         2.900699         0.309344
 H        -1.357836        -1.576125         0.139858
