19
Iteration:  3073charge 0 multiplicity 1
 O         0.561341         0.183420         0.669288
 C        -0.766701         0.652173         0.760090
 C        -1.427368         0.810356         2.261060
 C        -2.479798        -0.118129         1.695356
 C        -3.325880         0.711942         0.628861
 C        -2.668737         2.096509         0.309302
 C        -1.153056         1.926723        -0.077498
 O        -2.843767        -0.280435        -0.484633
 C        -1.713816        -0.551968         0.396517
 H         1.107793         0.907364         0.721605
 H        -0.734716         0.043122         2.755761
 H        -1.653141         1.867420         2.659767
 H        -3.029074        -0.811589         2.213345
 H        -4.417667         0.790889         0.484959
 H        -3.214126         2.692731        -0.400731
 H        -2.776403         2.696878         1.263069
 H        -0.993661         1.806711        -1.198945
 H        -0.632910         2.933940         0.192163
 H        -1.092397        -1.401988         0.109550
