19
Iteration:   772
 O         0.666354         0.434514         0.813948
 C        -0.754888         0.572804         0.736119
 C        -1.387202         0.738925         2.187585
 C        -2.550278        -0.150751         1.717297
 C        -3.281283         0.735500         0.654477
 C        -2.646375         2.077013         0.244088
 C        -1.139464         1.785983        -0.100117
 O        -2.964032        -0.235218        -0.429602
 C        -1.756497        -0.573650         0.360538
 H         1.008349         0.802410         0.047513
 H        -0.592700         0.380002         2.827522
 H        -1.541310         1.756811         2.438330
 H        -3.210186        -0.894273         2.369970
 H        -4.371734         1.000203         0.797042
 H        -3.203742         2.477344        -0.799574
 H        -2.712001         2.767045         1.099936
 H        -1.178985         1.529674        -1.223179
 H        -0.309577         2.567551         0.015904
 H        -1.313097        -1.492067         0.127171
