19
Iteration:  1496
 O         0.612069         0.422265         0.615663
 C        -0.767680         0.645541         0.784329
 C        -1.332118         0.623236         2.231296
 C        -2.594083        -0.122272         1.679893
 C        -3.281922         0.717198         0.531484
 C        -2.602268         2.120485         0.308557
 C        -1.129493         1.859111        -0.098506
 O        -2.874436        -0.220309        -0.458949
 C        -1.868098        -0.628365         0.444012
 H         0.958920         0.416438         1.446491
 H        -0.706148         0.012098         2.914083
 H        -1.520527         1.709422         2.779556
 H        -3.060146        -0.858775         2.431443
 H        -4.356733         0.880925         0.466387
 H        -3.095166         2.718846        -0.411879
 H        -2.625967         2.739834         1.261040
 H        -0.939024         1.594963        -1.153677
 H        -0.594548         2.855007         0.219679
 H        -1.335071        -1.563149         0.394643
