19
Iteration:  4226
 O         0.720460         0.368082         0.698866
 C        -0.730050         0.639964         0.834010
 C        -1.276610         0.624027         2.227298
 C        -2.588835        -0.031771         1.621064
 C        -3.359418         0.743498         0.550326
 C        -2.698849         2.139151         0.317221
 C        -1.238319         1.829846         0.008331
 O        -2.899085        -0.260706        -0.498594
 C        -1.788486        -0.637330         0.406406
 H         1.035423         1.006322        -0.037319
 H        -0.723895         0.131122         3.031717
 H        -1.222078         1.684292         2.574518
 H        -3.039126        -0.627710         2.410724
 H        -4.457973         0.856393         0.410079
 H        -3.151179         2.594192        -0.523018
 H        -2.815729         2.723594         1.259748
 H        -1.097418         1.514862        -1.025197
 H        -0.506621         2.635403         0.166734
 H        -1.375034        -1.613216         0.392302
