19
Iteration:  2383charge 0 multiplicity 1
 O         0.667603         0.416467         0.722087
 C        -0.735457         0.639490         0.759204
 C        -1.296328         0.665557         2.177640
 C        -2.548450        -0.127936         1.744868
 C        -3.343274         0.705938         0.545209
 C        -2.705140         2.121965         0.327319
 C        -1.231703         1.814705        -0.115343
 O        -2.817215        -0.193680        -0.497498
 C        -1.812957        -0.591522         0.502390
 H         0.869384         0.367949        -0.176146
 H        -0.519517         0.137064         2.805177
 H        -1.446555         1.689316         2.568894
 H        -3.154765        -0.875559         2.420988
 H        -4.413722         0.696363         0.761143
 H        -3.284568         2.830218        -0.299848
 H        -2.704805         2.751815         1.309915
 H        -1.387660         1.388375        -1.096021
 H        -0.521495         2.606994        -0.076923
 H        -1.336910        -1.575627         0.335597
