19
Iteration:    65charge 0 multiplicity 1
 O         0.704709         0.429155         0.667156
 C        -0.713288         0.592034         0.755703
 C        -1.305527         0.649348         2.167711
 C        -2.536758         0.026000         1.650529
 C        -3.329712         0.739428         0.556253
 C        -2.727210         2.154221         0.192749
 C        -1.194777         1.861047        -0.002015
 O        -2.908415        -0.333178        -0.422002
 C        -1.808355        -0.573809         0.459812
 H         0.928873        -0.093194         1.380220
 H        -0.766955        -0.099284         2.862439
 H        -1.190622         1.577723         2.774252
 H        -3.104824        -0.608043         2.320551
 H        -4.409977         0.712321         0.701061
 H        -3.165717         2.490109        -0.661822
 H        -2.978627         2.847138         1.060163
 H        -1.118460         1.606297        -0.998017
 H        -0.539637         2.655040         0.280668
 H        -1.383380        -1.680703         0.419879
