19
Iteration:   736
 O         0.649176         0.265488         0.683580
 C        -0.770161         0.678559         0.757909
 C        -1.233670         0.669209         2.259507
 C        -2.579266        -0.000421         1.756547
 C        -3.342999         0.728126         0.520088
 C        -2.797340         2.067911         0.162752
 C        -1.202381         1.921204         0.002994
 O        -2.785147        -0.268805        -0.477170
 C        -1.747642        -0.498147         0.526248
 H         0.789212        -0.335661         0.019851
 H        -0.660800        -0.100685         2.770973
 H        -1.039268         1.607478         2.841043
 H        -3.346052        -0.597984         2.426338
 H        -4.371820         0.643222         0.583681
 H        -3.218827         2.444987        -0.825760
 H        -3.341786         2.740654         0.873871
 H        -1.013987         1.827484        -1.038302
 H        -0.711105         2.786498         0.273019
 H        -1.200963        -1.440586         0.383288
