19
Iteration:  1910charge 0 multiplicity 1
 O         0.617670         0.399467         0.515965
 C        -0.679903         0.590494         0.859520
 C        -1.387942         0.596282         2.319667
 C        -2.571172        -0.044441         1.750511
 C        -3.298351         0.753470         0.490149
 C        -2.719587         2.083230         0.196291
 C        -1.146365         1.836844         0.060185
 O        -2.823414        -0.252715        -0.506328
 C        -1.778451        -0.548744         0.530752
 H         0.634404         0.742336        -0.378728
 H        -0.919646        -0.038504         2.998300
 H        -1.531374         1.521019         2.763886
 H        -3.252015        -0.585017         2.396227
 H        -4.388107         0.730113         0.587854
 H        -3.149910         2.720232        -0.462970
 H        -2.865860         2.661410         1.119301
 H        -0.758449         1.688181        -0.934087
 H        -0.586512         2.795972         0.350210
 H        -1.282963        -1.475879         0.357637
