19
Iteration:  3252
 O         0.683957         0.398255         0.621483
 C        -0.759588         0.580692         0.756962
 C        -1.281295         0.630372         2.200415
 C        -2.576802        -0.032552         1.600021
 C        -3.327075         0.761455         0.506401
 C        -2.678047         2.125104         0.344118
 C        -1.227136         1.783351         0.012274
 O        -2.853761        -0.247634        -0.448913
 C        -1.809801        -0.587573         0.495059
 H         1.088777         1.046467         1.113877
 H        -0.691844        -0.063245         2.823250
 H        -1.370225         1.541980         2.893098
 H        -3.179383        -0.808487         2.211684
 H        -4.387751         0.963547         0.485316
 H        -2.952461         2.601057        -0.612853
 H        -2.701066         2.813886         1.218736
 H        -1.225800         1.617563        -1.064130
 H        -0.704857         2.737763         0.289562
 H        -1.617160        -1.677183         0.330189
