19
Iteration:  3674
 O         0.635436         0.309686         0.645023
 C        -0.732617         0.590119         0.799144
 C        -1.231452         0.656918         2.231170
 C        -2.584755        -0.018727         1.726662
 C        -3.322438         0.715535         0.454357
 C        -2.767069         2.102798         0.340341
 C        -1.241558         1.861025        -0.043216
 O        -2.766514        -0.210191        -0.487316
 C        -1.802649        -0.597630         0.488116
 H         0.980082         1.129433         0.491410
 H        -0.728008        -0.025990         2.977550
 H        -1.310100         1.683960         2.597455
 H        -3.100955        -0.537413         2.480693
 H        -4.414263         0.822373         0.314977
 H        -3.200788         2.658787        -0.522586
 H        -2.837353         2.627451         1.331217
 H        -1.295994         1.628718        -1.123970
 H        -0.551203         2.714537        -0.084163
 H        -1.626305        -1.703104         0.493014
