19
Iteration:  1618
 O         0.657162         0.241946         0.594705
 C        -0.778464         0.599144         0.767490
 C        -1.284811         0.636656         2.184027
 C        -2.562315        -0.004270         1.681452
 C        -3.311849         0.751858         0.542728
 C        -2.841988         2.087328         0.201841
 C        -1.179192         1.913991         0.096166
 O        -2.743837        -0.190157        -0.447931
 C        -1.813531        -0.561545         0.529049
 H         1.201884         1.104425         0.351943
 H        -0.787020        -0.184515         2.671939
 H        -1.299942         1.440505         2.769983
 H        -3.231803        -0.595394         2.311656
 H        -4.388558         0.688914         0.465464
 H        -3.260728         2.248328        -0.800545
 H        -3.069527         2.864369         0.980934
 H        -0.890448         1.702571        -0.940428
 H        -0.576628         2.677875         0.712665
 H        -1.419113        -1.539073         0.531914
