19
Iteration:  3619charge 0 multiplicity 1
 O         0.652839         0.215311         0.596743
 C        -0.802331         0.662711         0.805355
 C        -1.305094         0.731339         2.211093
 C        -2.533676        -0.038624         1.694605
 C        -3.313637         0.720057         0.584015
 C        -2.769743         2.073756         0.227481
 C        -1.170027         1.893069         0.035566
 O        -2.872036        -0.288933        -0.477195
 C        -1.736062        -0.541421         0.418603
 H         1.162734         0.848967         1.032985
 H        -0.663194         0.019567         2.836130
 H        -1.328678         1.712630         2.691159
 H        -3.067496        -0.590009         2.412491
 H        -4.414999         0.831962         0.779454
 H        -3.197882         2.603957        -0.678247
 H        -3.048862         2.863753         0.970478
 H        -0.928667         1.962699        -1.050303
 H        -0.628621         2.745213         0.523587
 H        -1.189703        -1.526231         0.280198
