19
Iteration:  2978charge 0 multiplicity 1
 O         0.567800         0.231940         0.596955
 C        -0.740917         0.666388         0.769153
 C        -1.375247         0.715416         2.246310
 C        -2.531914        -0.146366         1.649937
 C        -3.291656         0.759438         0.565889
 C        -2.662088         2.050283         0.232174
 C        -1.179576         1.966168         0.011212
 O        -2.862766        -0.250847        -0.384298
 C        -1.717559        -0.550295         0.418683
 H         1.179813         1.044605         0.534578
 H        -0.931203         0.177924         3.057818
 H        -1.730618         1.719300         2.438270
 H        -3.054729        -0.822433         2.411095
 H        -4.349655         0.796622         0.694393
 H        -3.160725         2.517641        -0.603064
 H        -2.866331         2.731033         1.099793
 H        -0.875649         1.648313        -1.004683
 H        -0.582701         2.837671         0.333004
 H        -1.299198        -1.571756         0.352066
