19
Iteration:  2081
 O         0.621748         0.336783         0.745365
 C        -0.710675         0.650163         0.732603
 C        -1.352918         0.745941         2.206936
 C        -2.477146        -0.115184         1.694145
 C        -3.295996         0.687029         0.646826
 C        -2.719862         2.040426         0.319821
 C        -1.141117         1.820665        -0.096620
 O        -2.938898        -0.172687        -0.458140
 C        -1.749893        -0.602448         0.403824
 H         1.098510         1.060254         0.318565
 H        -0.651407         0.273808         2.910874
 H        -1.665820         1.750160         2.397776
 H        -3.091366        -0.608572         2.419238
 H        -4.390031         0.690365         0.713919
 H        -3.151599         2.302520        -0.730381
 H        -2.873080         2.933892         0.969414
 H        -1.148040         1.466226        -1.169751
 H        -0.583657         2.754369        -0.017251
 H        -1.474266        -1.655370         0.148301
