19
Iteration:  1559
 O         0.634897         0.198877         0.525883
 C        -0.814496         0.658664         0.776892
 C        -1.350351         0.653544         2.265784
 C        -2.609424        -0.061406         1.725368
 C        -3.275152         0.712414         0.538424
 C        -2.749449         2.124493         0.221799
 C        -1.161985         1.902362         0.047809
 O        -2.773091        -0.218520        -0.464759
 C        -1.732624        -0.516152         0.491039
 H         1.044095         1.004911         0.592192
 H        -0.793630        -0.028927         2.927686
 H        -1.458069         1.618086         2.744910
 H        -3.272788        -0.698944         2.368473
 H        -4.385835         0.607093         0.442029
 H        -3.444901         2.477906        -0.534894
 H        -2.898166         2.833149         1.070102
 H        -0.695615         1.956586        -0.935420
 H        -0.706714         2.716239         0.564594
 H        -1.229888        -1.549053         0.408457
