19
Iteration:  2120
 O         0.568927         0.263105         0.624379
 C        -0.703175         0.670424         0.753450
 C        -1.288378         0.690199         2.142032
 C        -2.591433         0.067576         1.701861
 C        -3.317211         0.649443         0.504794
 C        -2.737699         2.130268         0.356911
 C        -1.225387         1.852251        -0.057139
 O        -2.789372        -0.270039        -0.439566
 C        -1.717091        -0.568449         0.523451
 H         1.262935         1.058756         0.634710
 H        -0.769794        -0.073351         2.771488
 H        -1.371887         1.600713         2.842167
 H        -3.220913        -0.579431         2.431771
 H        -4.424247         0.555849         0.652858
 H        -3.184339         2.590476        -0.444537
 H        -3.068922         2.663787         1.228096
 H        -1.405448         1.507193        -1.097771
 H        -0.548769         2.719006        -0.071383
 H        -1.152325        -1.519706         0.426531
