19
Iteration:  4625charge 0 multiplicity 1
 O         0.699381         0.279306         0.657066
 C        -0.759930         0.593046         0.831121
 C        -1.415468         0.710624         2.286265
 C        -2.582526        -0.123750         1.632671
 C        -3.343627         0.702382         0.551477
 C        -2.682757         2.162689         0.320142
 C        -1.193477         1.899785        -0.039080
 O        -2.803990        -0.246721        -0.520898
 C        -1.722365        -0.507209         0.457389
 H         0.914649         0.225187        -0.223861
 H        -0.982149         0.150754         3.097204
 H        -1.627097         1.717274         2.560973
 H        -3.232368        -0.631672         2.345657
 H        -4.424408         0.697338         0.765728
 H        -3.148038         2.873329        -0.353547
 H        -2.784515         2.654695         1.307885
 H        -1.326581         1.743422        -1.183812
 H        -0.399798         2.611443         0.195733
 H        -1.284856        -1.500573         0.268217
