19
Iteration:  1707charge 0 multiplicity 1
 O         0.656181         0.318615         0.475397
 C        -0.715696         0.561014         0.845033
 C        -1.224421         0.583073         2.291109
 C        -2.606014         0.054871         1.696851
 C        -3.395012         0.730693         0.500099
 C        -2.754581         2.085654         0.205635
 C        -1.261430         1.847784         0.146698
 O        -2.796899        -0.196171        -0.530881
 C        -1.771893        -0.554621         0.515155
 H         1.157564         0.871191         1.235300
 H        -0.843357        -0.277127         2.917301
 H        -1.062868         1.636854         2.827223
 H        -3.115367        -0.500917         2.451002
 H        -4.478957         0.708029         0.470209
 H        -3.146310         2.377155        -0.865534
 H        -3.081881         2.897829         0.881647
 H        -0.936509         1.657838        -0.951702
 H        -0.628735         2.776435         0.540083
 H        -1.241234        -1.494080         0.403181
