19
Iteration:  1875
 O         0.567876         0.172919         0.665397
 C        -0.735572         0.627284         0.750044
 C        -1.263453         0.643362         2.163621
 C        -2.517818        -0.027342         1.728226
 C        -3.327713         0.693688         0.542037
 C        -2.856953         2.108329         0.150338
 C        -1.211506         1.977467         0.151832
 O        -2.733518        -0.175894        -0.474042
 C        -1.721687        -0.513878         0.466063
 H         0.839145         0.127703        -0.295862
 H        -0.657902        -0.043514         2.825989
 H        -1.283499         1.695237         2.637530
 H        -3.060472        -0.558435         2.520592
 H        -4.421233         0.581807         0.646297
 H        -3.265318         2.398394        -0.832273
 H        -3.109042         2.674518         1.044658
 H        -0.964257         2.147427        -0.895135
 H        -0.914348         2.766693         0.889869
 H        -1.269328        -1.534335         0.409070
