19
Iteration:    59charge 0 multiplicity 1
 O         0.702144         0.474309         0.703875
 C        -0.719193         0.595513         0.754691
 C        -1.276559         0.651154         2.161258
 C        -2.587838         0.010665         1.664854
 C        -3.317443         0.741480         0.575835
 C        -2.685765         2.097107         0.239938
 C        -1.179373         1.801429        -0.042319
 O        -2.913884        -0.325524        -0.439282
 C        -1.816121        -0.551812         0.454750
 H         1.011054        -0.221289         1.364161
 H        -0.853042        -0.126013         2.744735
 H        -1.165242         1.588102         2.694162
 H        -3.233818        -0.551563         2.357823
 H        -4.417537         0.904801         0.669885
 H        -3.351725         2.550231        -0.649008
 H        -2.868570         2.719671         1.086978
 H        -1.193929         1.618853        -1.210175
 H        -0.590959         2.755465         0.118616
 H        -1.335274        -1.444894         0.316856
