19
Iteration:   495
 O         0.689720         0.500463         0.809674
 C        -0.710290         0.565360         0.808281
 C        -1.320311         0.664210         2.213965
 C        -2.582444         0.009170         1.624036
 C        -3.357446         0.754401         0.552982
 C        -2.637808         2.100636         0.293339
 C        -1.174215         1.701903        -0.186758
 O        -2.928523        -0.274938        -0.453920
 C        -1.800391        -0.596714         0.462484
 H         1.035571         1.055406         0.171534
 H        -0.739656        -0.075110         2.722748
 H        -1.388208         1.639213         2.654846
 H        -3.325338        -0.607249         2.252469
 H        -4.410820         0.722971         0.738628
 H        -3.126433         2.890233        -0.313040
 H        -2.549516         2.427501         1.265522
 H        -1.210718         1.319165        -1.298823
 H        -0.424703         2.527713        -0.018681
 H        -1.422333        -1.578072         0.356505
