19
Iteration:   426
 O         0.603612         0.273031         0.592214
 C        -0.734390         0.765444         0.823667
 C        -1.272421         0.734938         2.227801
 C        -2.571618        -0.037031         1.686372
 C        -3.327179         0.657310         0.482233
 C        -2.737491         2.029718         0.135984
 C        -1.032930         2.084858         0.173987
 O        -2.865138        -0.408789        -0.438559
 C        -1.838272        -0.507743         0.518020
 H         0.420380        -0.476903        -0.111352
 H        -0.771724        -0.103448         2.825774
 H        -1.463016         1.793141         2.588659
 H        -3.178871        -0.696932         2.254301
 H        -4.400526         0.655683         0.533348
 H        -3.049197         2.156467        -0.854835
 H        -3.209891         2.792516         0.859480
 H        -0.619868         2.096573        -0.827102
 H        -0.577267         3.063848         0.702283
 H        -1.168962        -1.522388         0.435809
