19
Iteration:   681charge 0 multiplicity 1
 O         0.573682         0.348720         0.544329
 C        -0.766677         0.643176         0.830867
 C        -1.424200         0.719510         2.240727
 C        -2.612681        -0.039908         1.722151
 C        -3.346117         0.719374         0.527925
 C        -2.606670         2.107270         0.206480
 C        -1.138755         1.878239         0.021436
 O        -2.770369        -0.333046        -0.400639
 C        -1.706810        -0.548302         0.540631
 H         0.597015         0.513955        -0.372164
 H        -0.864509         0.057277         2.903486
 H        -1.473361         1.749491         2.649490
 H        -3.145435        -0.793149         2.423877
 H        -4.371515         0.724032         0.416859
 H        -2.997631         2.491359        -0.817313
 H        -2.948130         2.832096         1.012590
 H        -0.929775         1.601146        -1.006698
 H        -0.538021         2.700818         0.316916
 H        -1.332845        -1.565393         0.535193
