19
Iteration:  4949charge 0 multiplicity 1
 O         0.624217         0.388835         0.703038
 C        -0.711849         0.642188         0.783505
 C        -1.332887         0.673979         2.231971
 C        -2.584287        -0.169629         1.702783
 C        -3.322338         0.745459         0.551537
 C        -2.681315         2.114775         0.268884
 C        -1.103471         1.919702         0.043942
 O        -2.866705        -0.228598        -0.517127
 C        -1.839310        -0.664123         0.408108
 H         0.842228         0.649813        -0.184622
 H        -0.644646         0.074559         2.867096
 H        -1.492942         1.634852         2.639748
 H        -3.355227        -0.626592         2.351564
 H        -4.380505         0.776153         0.791966
 H        -3.068818         2.570456        -0.625559
 H        -2.755053         2.860985         1.069994
 H        -0.883807         1.570493        -1.013217
 H        -0.432042         2.774645         0.409657
 H        -1.421616        -1.682559         0.270926
