19
Iteration:   308charge 0 multiplicity 1
 O         0.658960         0.262748         0.661300
 C        -0.696784         0.620561         0.763083
 C        -1.291507         0.712023         2.188788
 C        -2.521401        -0.019576         1.669117
 C        -3.387780         0.674361         0.601738
 C        -2.752803         2.044270         0.148667
 C        -1.221112         1.896678        -0.028245
 O        -2.843191        -0.174933        -0.433625
 C        -1.765853        -0.559063         0.502274
 H         1.067966         0.506398         1.444411
 H        -0.820180         0.007269         2.859053
 H        -1.354864         1.744915         2.512819
 H        -3.064665        -0.687004         2.371620
 H        -4.447157         0.633674         0.747441
 H        -3.191759         2.369775        -0.774556
 H        -2.977254         2.801580         0.969525
 H        -1.000392         1.798026        -1.097765
 H        -0.725718         2.813109         0.268778
 H        -1.266885        -1.509224         0.344783
