19
Iteration:  4694charge 0 multiplicity 1
 O         0.709820         0.383929         0.661277
 C        -0.723790         0.632201         0.765428
 C        -1.345698         0.619139         2.244326
 C        -2.619243        -0.067000         1.694258
 C        -3.358807         0.680688         0.532420
 C        -2.627043         2.031812         0.233342
 C        -1.075272         1.949262         0.137905
 O        -2.962690        -0.253570        -0.489979
 C        -1.847559        -0.534874         0.441890
 H         1.015805         0.587147        -0.270732
 H        -0.903215        -0.040558         2.944360
 H        -1.267280         1.649175         2.597413
 H        -3.178801        -0.816032         2.256143
 H        -4.441268         0.803199         0.442008
 H        -3.024578         2.329047        -0.742813
 H        -2.891497         2.861435         0.872187
 H        -0.613829         1.779491        -0.976241
 H        -0.598642         2.845092         0.551759
 H        -1.262685        -1.503335         0.434292
