19
Iteration:    48
 O         0.684971         0.545956         0.748826
 C        -0.737529         0.651396         0.750207
 C        -1.260819         0.656652         2.198601
 C        -2.632573        -0.030736         1.735876
 C        -3.364968         0.752128         0.559337
 C        -2.597457         1.960408         0.321586
 C        -1.191666         1.757953        -0.200896
 O        -2.915950        -0.229173        -0.470320
 C        -1.813956        -0.579365         0.458288
 H         0.900582        -0.279604         1.081764
 H        -0.703498        -0.069125         2.742774
 H        -1.303279         1.607998         2.713394
 H        -3.296141        -0.620202         2.392590
 H        -4.476151         0.825637         0.534810
 H        -3.123782         2.696497        -0.478847
 H        -2.512972         2.533538         1.219120
 H        -0.993896         1.352979        -1.308756
 H        -0.565024         2.694115        -0.049654
 H        -1.420775        -1.504843         0.259258
