19
Iteration:   138charge 0 multiplicity 1
 O         0.647419         0.276102         0.548440
 C        -0.790905         0.585731         0.787271
 C        -1.289834         0.616284         2.265123
 C        -2.592367         0.053769         1.770349
 C        -3.280268         0.714459         0.457205
 C        -2.740904         2.146489         0.124306
 C        -1.220201         1.905338         0.122600
 O        -2.766585        -0.305940        -0.447914
 C        -1.781436        -0.568147         0.522446
 H         0.874574         0.927519        -0.079996
 H        -0.719519         0.025141         3.002861
 H        -1.333167         1.581296         2.806445
 H        -3.348833        -0.470638         2.417161
 H        -4.379918         0.713196         0.496256
 H        -3.251488         2.673709        -0.787285
 H        -2.978102         2.764700         1.053777
 H        -0.928673         1.865284        -0.995782
 H        -0.778078         2.808383         0.744701
 H        -1.271372        -1.551449         0.576829
