19
Iteration:  2224
 O         0.660689         0.369443         0.662555
 C        -0.740884         0.613408         0.725119
 C        -1.363481         0.713124         2.334926
 C        -2.520010        -0.050984         1.653067
 C        -3.328654         0.685672         0.621254
 C        -2.685170         2.078787         0.328136
 C        -1.192134         1.794454        -0.108059
 O        -2.876924        -0.190161        -0.512997
 C        -1.765615        -0.594774         0.465019
 H         1.053840         0.871565        -0.060143
 H        -0.879837        -0.013994         2.957503
 H        -1.531610         1.677393         2.792928
 H        -3.081357        -0.612847         2.320970
 H        -4.385212         0.602994         0.870327
 H        -3.304795         2.451720        -0.606355
 H        -2.687018         2.818661         1.206107
 H        -1.106611         1.604799        -1.235607
 H        -0.580061         2.743225         0.050945
 H        -1.262288        -1.572934         0.515537
