19
Iteration:  1509
 O         0.654026         0.320792         0.697334
 C        -0.730902         0.660812         0.715110
 C        -1.340042         0.652194         2.221717
 C        -2.508687        -0.145283         1.714290
 C        -3.418917         0.761960         0.553076
 C        -2.626637         2.073315         0.312916
 C        -1.198046         1.863381        -0.129192
 O        -2.860565        -0.183390        -0.473466
 C        -1.763740        -0.575656         0.422819
 H         1.071615         0.532433         1.653849
 H        -0.675172         0.118600         2.939856
 H        -1.740173         1.789253         2.760286
 H        -3.279902        -0.715790         2.278623
 H        -4.499445         0.716988         0.608767
 H        -3.210295         2.788800        -0.280972
 H        -2.567593         2.567710         1.318070
 H        -1.161942         1.638680        -1.195949
 H        -0.426341         2.720682        -0.034377
 H        -1.536581        -1.530158         0.071709
