19
Iteration:   745
 O         0.632756         0.298528         0.739108
 C        -0.736183         0.698610         0.810302
 C        -1.271656         0.651647         2.253712
 C        -2.542038        -0.038192         1.749755
 C        -3.307461         0.701411         0.583135
 C        -2.744398         2.053680         0.115242
 C        -1.201326         1.953953        -0.066436
 O        -2.842076        -0.252261        -0.465407
 C        -1.784658        -0.521355         0.449451
 H         0.683712        -0.195011        -0.037511
 H        -0.574849        -0.081783         2.721497
 H        -1.329206         1.646099         2.809409
 H        -3.085325        -0.724711         2.388501
 H        -4.367813         0.844494         0.643096
 H        -3.240964         2.311266        -0.739888
 H        -2.916183         2.786873         0.942726
 H        -1.079339         1.698295        -1.085453
 H        -0.736594         2.872057         0.254084
 H        -1.326200        -1.574600         0.426368
