19
Iteration:  1370
 O         0.678227         0.455234         0.738908
 C        -0.719500         0.556155         0.749712
 C        -1.259636         0.545476         2.245180
 C        -2.544512        -0.085636         1.693201
 C        -3.372147         0.805209         0.522155
 C        -2.674995         2.176335         0.301348
 C        -1.291741         1.680086        -0.136706
 O        -2.832594        -0.156387        -0.487310
 C        -1.817633        -0.602039         0.504415
 H         0.955723         1.308541         0.940049
 H        -0.717014        -0.180409         2.887182
 H        -1.415277         1.469504         2.695780
 H        -3.194154        -0.639350         2.330532
 H        -4.488817         0.762801         0.645395
 H        -3.160884         2.726840        -0.616696
 H        -2.509528         2.868349         1.135766
 H        -1.243598         1.370911        -1.210678
 H        -0.638415         2.538116        -0.047552
 H        -1.331501        -1.597187         0.102851
