19
Iteration:  1284
 O         0.552702         0.149209         0.530697
 C        -0.759569         0.634716         0.742857
 C        -1.283955         0.692607         2.229102
 C        -2.619501        -0.029945         1.709246
 C        -3.307141         0.678576         0.523491
 C        -2.819104         2.100228         0.199336
 C        -1.178363         1.958939         0.134179
 O        -2.692423        -0.222212        -0.451455
 C        -1.776644        -0.518384         0.535617
 H         1.188415         0.929928         0.428211
 H        -0.646197         0.033960         2.949373
 H        -1.310349         1.690522         2.900053
 H        -3.119399        -0.771859         2.258996
 H        -4.425378         0.659618         0.520207
 H        -3.224660         2.518716        -0.671114
 H        -3.040049         2.839818         0.921371
 H        -0.798077         1.958115        -0.947291
 H        -0.706780         2.808537         0.624357
 H        -1.129525        -1.393509         0.296377
