19
Iteration:  4559charge 0 multiplicity 1
 O         0.683875         0.366706         0.680820
 C        -0.728729         0.568174         0.871033
 C        -1.269775         0.485330         2.278024
 C        -2.531296         0.004990         1.715904
 C        -3.367390         0.781418         0.544264
 C        -2.751771         2.133587         0.056383
 C        -1.224316         1.885550         0.085647
 O        -2.862075        -0.140145        -0.487117
 C        -1.751688        -0.618285         0.486217
 H         0.880576         0.807724        -0.174900
 H        -0.784138        -0.240574         2.897914
 H        -1.286648         1.250439         3.001592
 H        -3.218160        -0.744612         2.126726
 H        -4.450064         0.703091         0.778702
 H        -3.059454         2.401869        -0.936082
 H        -3.068020         2.785685         0.859278
 H        -1.118691         1.575770        -1.022947
 H        -0.684822         2.847151         0.083414
 H        -1.233538        -1.579269         0.283174
