19
Iteration:  2059
 O         0.626972         0.381450         0.634461
 C        -0.766408         0.620449         0.767533
 C        -1.296395         0.606617         2.258484
 C        -2.598021        -0.083687         1.722234
 C        -3.315898         0.750864         0.609599
 C        -2.716539         2.090822         0.131425
 C        -1.187217         1.835952        -0.015788
 O        -2.853175        -0.251023        -0.436042
 C        -1.733720        -0.520131         0.539375
 H         0.862818         0.893317        -0.161518
 H        -0.596572        -0.068642         2.785653
 H        -1.401750         1.586183         2.765592
 H        -3.137944        -0.804721         2.315983
 H        -4.400020         0.765580         0.749793
 H        -3.108104         2.488028        -0.897106
 H        -2.766044         2.848127         0.937088
 H        -0.897539         1.701899        -1.099774
 H        -0.694280         2.727515         0.375265
 H        -1.249822        -1.520468         0.344290
