19
Iteration:   432charge 0 multiplicity 1
 O         0.582649         0.258156         0.602180
 C        -0.757064         0.767723         0.796828
 C        -1.290851         0.741739         2.236822
 C        -2.581958        -0.038475         1.670719
 C        -3.338033         0.665012         0.490536
 C        -2.690478         2.015362         0.161420
 C        -1.084028         2.046241         0.163369
 O        -2.837873        -0.397167        -0.414579
 C        -1.771722        -0.491782         0.490778
 H         0.440609        -0.295856        -0.093268
 H        -0.738829         0.112701         2.891298
 H        -1.365094         1.652624         2.814794
 H        -3.287605        -0.774775         2.174010
 H        -4.460482         0.731893         0.686541
 H        -2.881570         2.392084        -0.927462
 H        -3.189778         2.725764         0.784569
 H        -0.785018         2.006154        -0.925385
 H        -0.611491         2.877115         0.531292
 H        -1.241707        -1.359244         0.379099
