19
Iteration:  1487charge 0 multiplicity 1
 O         0.606028         0.464570         0.571397
 C        -0.783306         0.598907         0.802805
 C        -1.358866         0.618510         2.190785
 C        -2.605989        -0.060473         1.691975
 C        -3.222066         0.772619         0.559406
 C        -2.624851         2.119218         0.288326
 C        -1.143005         1.832178         0.002754
 O        -2.870246        -0.278314        -0.499969
 C        -1.828671        -0.594505         0.497007
 H         1.081590         0.235025         1.311457
 H        -0.855334        -0.202417         2.743543
 H        -1.275819         1.702278         2.835527
 H        -3.317452        -0.738674         2.207911
 H        -4.291382         0.791347         0.680149
 H        -3.163808         2.585136        -0.548554
 H        -2.878505         2.782581         1.143950
 H        -0.941236         1.675612        -1.050406
 H        -0.352279         2.589816         0.261533
 H        -1.356953        -1.518106         0.305294
