19
Iteration:  3683charge 0 multiplicity 1
 O         0.714579         0.317873         0.642737
 C        -0.724691         0.595131         0.805855
 C        -1.301746         0.654381         2.225548
 C        -2.542963         0.010734         1.693302
 C        -3.371983         0.796696         0.470414
 C        -2.722969         2.132143         0.317566
 C        -1.257684         1.888795        -0.043253
 O        -2.812961        -0.263173        -0.502589
 C        -1.824983        -0.652296         0.535701
 H         1.156361         1.013621         0.287659
 H        -0.682164        -0.082830         2.868992
 H        -1.161678         1.639209         2.719996
 H        -2.988586        -0.650370         2.386775
 H        -4.418006         0.697205         0.439389
 H        -3.258823         2.673902        -0.544606
 H        -3.177282         2.545655         1.213762
 H        -1.195037         1.512398        -1.053294
 H        -0.701363         2.665389         0.402991
 H        -1.408908        -1.681241         0.410676
