19
Iteration:  2911
 O         0.611381         0.377436         0.476156
 C        -0.725642         0.651581         0.838440
 C        -1.364531         0.578214         2.273114
 C        -2.574497        -0.028833         1.721904
 C        -3.320634         0.712959         0.501756
 C        -2.628515         2.103308         0.214509
 C        -1.202237         1.858076         0.048733
 O        -2.820486        -0.270964        -0.459006
 C        -1.800194        -0.566611         0.553504
 H         1.060456         1.207450         0.571899
 H        -0.835030        -0.210698         2.837974
 H        -1.541265         1.593962         2.724780
 H        -3.290254        -0.672048         2.388782
 H        -4.386628         0.896484         0.499240
 H        -3.128068         2.623080        -0.557560
 H        -2.745349         2.684848         1.206798
 H        -1.040273         1.656798        -1.030107
 H        -0.437196         2.690463         0.196534
 H        -1.292630        -1.566319         0.496777
