19
Iteration:  3021
 O         0.661673         0.322866         0.497411
 C        -0.682038         0.529657         0.825505
 C        -1.238331         0.557384         2.254445
 C        -2.574403         0.125334         1.713869
 C        -3.361005         0.712236         0.477490
 C        -2.790559         2.094837         0.141091
 C        -1.271140         1.853542         0.101089
 O        -2.750327        -0.195988        -0.453231
 C        -1.813026        -0.561520         0.611359
 H         1.228685         0.931226         0.936503
 H        -0.823359        -0.317196         2.710653
 H        -1.212761         1.528923         2.667597
 H        -3.343506        -0.492060         2.229209
 H        -4.423934         0.668462         0.461220
 H        -3.159194         2.483776        -0.781494
 H        -3.170103         2.838180         0.894793
 H        -1.015672         1.702692        -0.977378
 H        -0.823589         2.781785         0.646343
 H        -1.443312        -1.578763         0.441702
