19
Iteration:  3862
 O         0.609106         0.247773         0.532487
 C        -0.775536         0.596215         0.760912
 C        -1.323558         0.665283         2.256010
 C        -2.605790        -0.018656         1.706468
 C        -3.298544         0.756357         0.537925
 C        -2.712739         2.081435         0.207881
 C        -1.156234         2.004597         0.041238
 O        -2.793826        -0.281673        -0.426349
 C        -1.772591        -0.609596         0.523432
 H         1.022491         0.945920         0.931046
 H        -0.608209         0.032686         2.782625
 H        -1.548862         1.690683         2.645943
 H        -3.169063        -0.790940         2.263354
 H        -4.409302         0.620296         0.572878
 H        -3.111710         2.440481        -0.745031
 H        -2.896375         2.848664         1.026165
 H        -0.770156         2.101671        -0.948197
 H        -0.748726         2.896985         0.510804
 H        -1.440889        -1.643528         0.290208
