19
Iteration:   195charge 0 multiplicity 1
 O         0.620322         0.423323         0.894042
 C        -0.727259         0.671845         0.749824
 C        -1.347482         0.691448         2.247330
 C        -2.508568        -0.168214         1.620545
 C        -3.283071         0.762014         0.646958
 C        -2.659448         2.157300         0.287296
 C        -1.260091         1.787545        -0.246908
 O        -2.873945        -0.191972        -0.420297
 C        -1.745283        -0.591849         0.357524
 H         0.754182        -0.383462         0.230473
 H        -0.621598        -0.006966         2.792763
 H        -1.568450         1.689298         2.681865
 H        -3.057866        -0.932397         2.145346
 H        -4.314920         0.822781         0.796986
 H        -3.334282         2.518979        -0.440415
 H        -2.643051         2.914670         1.198969
 H        -1.399058         1.328813        -1.203364
 H        -0.505138         2.593384        -0.521017
 H        -1.252818        -1.639959         0.237431
