19
Iteration:  1968charge 0 multiplicity 1
 O         0.598674         0.328475         0.832190
 C        -0.739685         0.616959         0.708424
 C        -1.312339         0.715953         2.264988
 C        -2.457011        -0.094462         1.684693
 C        -3.350633         0.706405         0.602324
 C        -2.698681         2.082810         0.250820
 C        -1.231505         1.858019        -0.146363
 O        -2.875293        -0.182743        -0.403126
 C        -1.701613        -0.493719         0.369937
 H         1.069442         0.023626        -0.056937
 H        -0.738726         0.022662         2.878901
 H        -1.413784         1.607508         2.752662
 H        -3.074562        -0.968211         2.033804
 H        -4.459466         0.649552         0.720558
 H        -3.213232         2.505004        -0.614056
 H        -2.813357         2.659219         1.179901
 H        -1.304927         1.566439        -1.239895
 H        -0.666809         2.772459        -0.013105
 H        -1.436028        -1.549705         0.125477
