19
Iteration:  3439charge 0 multiplicity 1
 O         0.623551         0.237882         0.494356
 C        -0.711594         0.622096         0.819274
 C        -1.269844         0.639854         2.249115
 C        -2.608838         0.069491         1.649869
 C        -3.332717         0.655718         0.505754
 C        -2.736851         2.072845         0.250898
 C        -1.287185         1.883000         0.115802
 O        -2.761772        -0.234771        -0.508729
 C        -1.763707        -0.515955         0.575806
 H         1.205411         0.963834         0.598962
 H        -0.750194        -0.091589         2.850991
 H        -1.163127         1.662468         2.805149
 H        -3.376659        -0.318183         2.399277
 H        -4.384069         0.620049         0.375182
 H        -3.151553         2.485227        -0.693023
 H        -2.814967         2.721595         1.125096
 H        -1.090906         2.014241        -0.936760
 H        -0.695126         2.596329         0.674181
 H        -1.414263        -1.519613         0.462958
