19
Iteration:  2014
 O         0.612518         0.362433         0.544419
 C        -0.759425         0.545051         0.716278
 C        -1.290866         0.651212         2.238828
 C        -2.573646         0.049058         1.690559
 C        -3.351180         0.730047         0.462985
 C        -2.767740         2.121668         0.240526
 C        -1.210197         1.897926         0.122509
 O        -2.747843        -0.296439        -0.434555
 C        -1.743714        -0.535869         0.581045
 H         0.880104        -0.120015        -0.281579
 H        -0.810853         0.007965         3.045900
 H        -1.316473         1.717497         2.569969
 H        -3.226430        -0.563135         2.397377
 H        -4.463049         0.680101         0.412476
 H        -3.204776         2.405859        -0.832578
 H        -3.014383         2.709573         1.144904
 H        -0.801346         1.999529        -0.958976
 H        -0.630907         2.498408         0.779755
 H        -1.259802        -1.581418         0.768629
