19
Iteration:  4357
 O         0.639965         0.279468         0.543384
 C        -0.697325         0.640139         0.768497
 C        -1.352266         0.698595         2.247082
 C        -2.592704        -0.105207         1.714267
 C        -3.365136         0.710323         0.550187
 C        -2.656409         2.117496         0.302675
 C        -1.166059         1.821858        -0.047193
 O        -2.808003        -0.227936        -0.470070
 C        -1.801718        -0.524533         0.521300
 H         1.126258         0.951150         1.093980
 H        -0.846907         0.034957         2.982476
 H        -1.548244         1.685693         2.696083
 H        -3.056344        -0.732532         2.449717
 H        -4.477541         0.759383         0.526962
 H        -3.218973         2.504753        -0.589639
 H        -2.994425         2.805985         1.158196
 H        -1.111863         1.715575        -1.151499
 H        -0.681512         2.841892         0.223015
 H        -1.295430        -1.386295         0.188077
