19
Iteration:  2703charge 0 multiplicity 1
 O         0.677051         0.284398         0.514570
 C        -0.707631         0.624768         0.793190
 C        -1.302486         0.662063         2.252079
 C        -2.587168         0.093668         1.756143
 C        -3.335144         0.647213         0.457746
 C        -2.752960         2.135770         0.312144
 C        -1.267887         1.865561         0.015472
 O        -2.786611        -0.241770        -0.481420
 C        -1.777462        -0.623053         0.529553
 H         1.146545         1.175867         0.711943
 H        -0.799770        -0.086292         2.849252
 H        -1.403556         1.527059         2.876183
 H        -3.323947        -0.570640         2.379830
 H        -4.428915         0.679801         0.409613
 H        -3.096759         2.599098        -0.579896
 H        -2.989959         2.586807         1.284783
 H        -1.088826         1.704243        -1.056246
 H        -0.530224         2.767597         0.229488
 H        -1.336674        -1.625503         0.400803
