19
Iteration:   928
 O         0.675494         0.415091         0.603895
 C        -0.704949         0.565743         0.788099
 C        -1.399928         0.709872         2.255083
 C        -2.631992        -0.076786         1.684484
 C        -3.338710         0.705203         0.584761
 C        -2.631266         2.135487         0.347329
 C        -1.268766         1.667090        -0.135099
 O        -2.787189        -0.144495        -0.472196
 C        -1.720782        -0.611391         0.483789
 H         1.107887         1.397406         0.688287
 H        -0.861461         0.106294         2.975300
 H        -1.791228         1.620449         2.609907
 H        -3.247201        -0.782715         2.340145
 H        -4.475549         0.893718         0.553198
 H        -3.174908         2.868683        -0.440567
 H        -2.461067         2.801979         1.290216
 H        -1.416094         1.174669        -1.102511
 H        -0.567346         2.446627        -0.109252
 H        -1.340475        -1.684512         0.422239
