19
Iteration:  1956charge 0 multiplicity 1
 O         0.683375         0.350624         0.899196
 C        -0.742123         0.665925         0.696684
 C        -1.252488         0.668112         2.200749
 C        -2.542770        -0.077098         1.661531
 C        -3.309464         0.720703         0.607315
 C        -2.744422         2.078476         0.273127
 C        -1.294003         1.836931        -0.186606
 O        -2.861215        -0.158345        -0.455632
 C        -1.802582        -0.650723         0.409691
 H         1.158448         0.450543         0.008440
 H        -0.552774         0.009695         2.631763
 H        -1.262054         1.530260         2.743161
 H        -3.119311        -0.567478         2.471660
 H        -4.414156         0.750044         0.684185
 H        -3.305279         2.688623        -0.354296
 H        -2.627589         2.714092         1.158868
 H        -1.103082         1.661275        -1.257646
 H        -0.693188         2.729068         0.083221
 H        -1.360273        -1.633315         0.229703
