19
Iteration:  1064
 O         0.616633         0.216183         0.689606
 C        -0.724567         0.668524         0.757599
 C        -1.332536         0.773423         2.177100
 C        -2.552732        -0.071441         1.662224
 C        -3.338495         0.690088         0.553400
 C        -2.707431         2.050068         0.335393
 C        -1.288958         1.789617        -0.129326
 O        -2.807653        -0.191264        -0.474915
 C        -1.684877        -0.491301         0.518728
 H         1.157735         1.058872         0.850090
 H        -0.826277         0.020928         2.822485
 H        -1.464185         1.855086         2.399163
 H        -3.059316        -0.625510         2.357431
 H        -4.393482         0.690030         0.815952
 H        -3.264398         2.648819        -0.383686
 H        -2.796482         2.640418         1.454040
 H        -1.275800         1.468717        -1.174311
 H        -0.679791         2.698971         0.030060
 H        -1.162268        -1.452796         0.327116
