19
Iteration:  2041
 O         0.653595         0.383993         0.570971
 C        -0.719578         0.630205         0.833930
 C        -1.197158         0.581947         2.332271
 C        -2.540046         0.086042         1.732755
 C        -3.317548         0.709096         0.429074
 C        -2.765620         2.066308         0.173718
 C        -1.223175         1.966142         0.040575
 O        -2.800187        -0.284296        -0.466978
 C        -1.886332        -0.643213         0.544286
 H         0.839527         0.427944        -0.403086
 H        -0.869884        -0.278423         2.942670
 H        -1.096064         1.503443         3.068738
 H        -3.243166        -0.356975         2.438421
 H        -4.407294         0.690759         0.429233
 H        -3.230215         2.344840        -0.757103
 H        -3.139489         2.641865         1.043904
 H        -0.988391         1.804501        -0.967065
 H        -0.586737         2.822663         0.410037
 H        -1.511101        -1.635694         0.529597
