19
Iteration:   705
 O         0.639129         0.352205         0.445859
 C        -0.749675         0.541635         0.835076
 C        -1.331198         0.780229         2.297042
 C        -2.603008         0.058669         1.722092
 C        -3.274934         0.745284         0.451663
 C        -2.739392         2.040007         0.191742
 C        -1.230375         1.890523         0.145153
 O        -2.689519        -0.282727        -0.506795
 C        -1.804892        -0.645174         0.646019
 H         0.581289        -0.166229        -0.473876
 H        -0.963089         0.214503         3.112439
 H        -1.310189         1.824131         2.557015
 H        -3.410709        -0.440946         2.433817
 H        -4.333604         0.612317         0.497488
 H        -3.171592         2.695054        -0.741384
 H        -3.130233         2.530219         1.091742
 H        -0.736043         1.926367        -0.854218
 H        -0.746645         2.726288         0.649905
 H        -1.537880        -1.651644         0.671238
