19
Iteration:  4697charge 0 multiplicity 1
 O         0.698055         0.376333         0.644099
 C        -0.726407         0.624703         0.796796
 C        -1.342695         0.621044         2.228625
 C        -2.629157        -0.048230         1.718389
 C        -3.359345         0.658369         0.538363
 C        -2.647640         2.022596         0.235864
 C        -1.054033         1.946151         0.129423
 O        -2.964686        -0.263072        -0.515142
 C        -1.832796        -0.509934         0.444351
 H         1.023867         0.557556        -0.187070
 H        -0.825382        -0.040505         3.002598
 H        -1.339045         1.694385         2.606412
 H        -3.096994        -0.897449         2.301049
 H        -4.440999         0.837336         0.401307
 H        -2.974455         2.377560        -0.771103
 H        -2.788086         2.926741         0.866743
 H        -0.676818         1.856603        -0.911341
 H        -0.589862         2.865875         0.598225
 H        -1.303384        -1.453424         0.370277
