19
Iteration:   806
 O         0.692645         0.354052         0.655782
 C        -0.699271         0.606236         0.794450
 C        -1.276978         0.674803         2.253342
 C        -2.615325         0.071611         1.678836
 C        -3.346712         0.756485         0.502744
 C        -2.755266         2.072354         0.256647
 C        -1.270056         1.778427        -0.094982
 O        -2.775527        -0.245272        -0.464300
 C        -1.785465        -0.605041         0.544654
 H         1.112657         1.186168         0.537603
 H        -0.738141        -0.204384         2.662145
 H        -1.212716         1.444600         2.983686
 H        -3.285657        -0.574327         2.322937
 H        -4.489676         0.644389         0.523594
 H        -3.395676         2.890321        -0.394882
 H        -2.785403         2.586671         1.252600
 H        -1.197814         1.431589        -1.194598
 H        -0.497095         2.580273        -0.031833
 H        -1.567547        -1.668229         0.483708
