19
Iteration:   234
 O         0.694945         0.272325         0.596389
 C        -0.740247         0.561044         0.821391
 C        -1.294382         0.756486         2.235258
 C        -2.567902         0.057873         1.655449
 C        -3.340658         0.685995         0.501236
 C        -2.765534         2.099377         0.218754
 C        -1.228695         1.922320         0.102296
 O        -2.792704        -0.277778        -0.453713
 C        -1.763436        -0.613398         0.536695
 H         0.910461         0.437761        -0.311198
 H        -0.853544         0.138136         2.983337
 H        -1.388718         1.810684         2.556698
 H        -3.234089        -0.534957         2.347704
 H        -4.508043         0.603084         0.412147
 H        -3.247842         2.585414        -0.741178
 H        -2.944291         2.712134         1.038504
 H        -0.959250         1.864364        -1.003230
 H        -0.655861         2.765243         0.543155
 H        -1.514312        -1.619741         0.480447
