19
Iteration:   623
 O         0.721800         0.403476         0.833466
 C        -0.716230         0.590460         0.752787
 C        -1.356769         0.703995         2.174142
 C        -2.561489        -0.048445         1.688986
 C        -3.337155         0.751028         0.588292
 C        -2.711627         2.051534         0.266858
 C        -1.221501         1.739251        -0.172953
 O        -2.874323        -0.196896        -0.435479
 C        -1.772752        -0.590027         0.437951
 H         1.218270         0.675444        -0.027892
 H        -0.635349         0.235950         2.971450
 H        -1.608906         1.753020         2.586289
 H        -3.207312        -0.674171         2.241874
 H        -4.460404         0.735954         0.676505
 H        -3.152381         2.525574        -0.591399
 H        -2.715249         2.887107         1.118798
 H        -1.094395         1.616741        -1.255260
 H        -0.576992         2.637480         0.110609
 H        -1.571509        -1.756693         0.414837
