19
Iteration:  2635charge 0 multiplicity 1
 O         0.680901         0.262456         0.648028
 C        -0.722826         0.633462         0.722372
 C        -1.338763         0.757423         2.203303
 C        -2.533245        -0.081414         1.670703
 C        -3.367760         0.681497         0.578851
 C        -2.726473         2.060087         0.261441
 C        -1.166621         1.865181         0.034220
 O        -2.915513        -0.207464        -0.463508
 C        -1.730776        -0.543422         0.487821
 H         1.196556         0.879597         0.224760
 H        -0.688785         0.363927         3.009089
 H        -1.501304         1.757946         2.571531
 H        -2.994970        -0.911574         2.318605
 H        -4.447965         0.636082         0.702516
 H        -3.216622         2.326644        -0.679456
 H        -2.869915         2.814852         1.087231
 H        -1.008269         1.751370        -1.072317
 H        -0.654943         2.895207         0.478997
 H        -1.400066        -1.556946         0.340220
