19
Iteration:  4275charge 0 multiplicity 1
 O         0.494045         0.222374         0.532004
 C        -0.778213         0.623031         0.784106
 C        -1.320998         0.732070         2.301083
 C        -2.548896        -0.119164         1.724269
 C        -3.247699         0.715419         0.578724
 C        -2.729388         2.140080         0.235784
 C        -1.218035         1.871058         0.045511
 O        -2.721885        -0.220828        -0.502683
 C        -1.749630        -0.532074         0.462447
 H         0.976168         1.032029         0.579085
 H        -0.564929         0.256888         2.964583
 H        -1.601523         1.640627         2.882358
 H        -3.197143        -0.746257         2.372635
 H        -4.345989         0.717077         0.691342
 H        -3.181761         2.542617        -0.736568
 H        -2.907843         2.880233         1.037719
 H        -1.088008         1.646128        -1.023525
 H        -0.533931         2.682295         0.247980
 H        -1.172581        -1.532582         0.365057
