19
Iteration:  4306
 O         0.681986         0.285926         0.475516
 C        -0.706838         0.651749         0.768809
 C        -1.285335         0.648932         2.262218
 C        -2.673575        -0.062484         1.740024
 C        -3.357177         0.678270         0.604505
 C        -2.707532         2.069407         0.105942
 C        -1.170076         1.893393         0.106495
 O        -2.837113        -0.213160        -0.430202
 C        -1.761622        -0.508930         0.488506
 H         1.209122         0.883332         1.183550
 H        -0.652958        -0.047756         2.880484
 H        -1.374156         1.540021         2.899229
 H        -3.278648        -0.640977         2.420784
 H        -4.472412         0.712945         0.482412
 H        -3.219000         2.496972        -0.695083
 H        -3.098778         2.742863         0.852580
 H        -0.940722         1.773885        -0.972139
 H        -0.702499         2.776985         0.374841
 H        -1.415975        -1.533759         0.360599
