19
Iteration:  2366
 O         0.707007         0.408974         0.665061
 C        -0.752097         0.621005         0.767526
 C        -1.228174         0.616949         2.327127
 C        -2.573592         0.020476         1.719734
 C        -3.367796         0.728364         0.469771
 C        -2.716012         2.099902         0.374232
 C        -1.317387         1.820608        -0.146882
 O        -2.809897        -0.275146        -0.450833
 C        -1.787954        -0.564245         0.471002
 H         1.071149         0.584445        -0.134684
 H        -0.865581        -0.302620         2.733412
 H        -1.191758         1.477527         3.011993
 H        -3.171242        -0.478525         2.425565
 H        -4.435456         0.810248         0.172141
 H        -3.184818         2.732761        -0.376236
 H        -2.779116         2.483719         1.341207
 H        -1.139114         1.583451        -1.242761
 H        -0.694526         2.769294        -0.080649
 H        -1.421220        -1.600000         0.376040
