19
Iteration:  2393charge 0 multiplicity 1
 O         0.595504         0.413002         0.719245
 C        -0.769634         0.625505         0.743227
 C        -1.320575         0.717246         2.147964
 C        -2.511843        -0.118291         1.625338
 C        -3.308103         0.733428         0.719585
 C        -2.679318         2.082542         0.319823
 C        -1.252222         1.772604        -0.076310
 O        -2.815327        -0.185423        -0.455898
 C        -1.742485        -0.593092         0.422071
 H         0.974370         0.243180        -0.080660
 H        -0.699012         0.192473         2.913365
 H        -1.624442         1.701247         2.499468
 H        -3.142973        -0.732497         2.349828
 H        -4.382443         0.805468         0.696945
 H        -3.149187         2.562388        -0.576825
 H        -2.784917         2.674386         1.310099
 H        -1.030199         1.549450        -1.094250
 H        -0.600947         2.678941         0.033638
 H        -1.408491        -1.635812         0.357705
