19
Iteration:  2745charge 0 multiplicity 1
 O         0.542831         0.180506         0.518624
 C        -0.757231         0.697537         0.790037
 C        -1.342344         0.739159         2.296208
 C        -2.546424        -0.163209         1.709711
 C        -3.259632         0.657233         0.558757
 C        -2.723077         2.067412         0.186603
 C        -1.183099         2.027672         0.080765
 O        -2.845513        -0.210217        -0.460747
 C        -1.713593        -0.549943         0.481005
 H         1.295531         0.873011         0.603473
 H        -0.741160         0.064958         2.920466
 H        -1.487003         1.782007         2.625300
 H        -3.208371        -0.618767         2.510317
 H        -4.330675         0.565253         0.743468
 H        -3.077043         2.124881        -0.842772
 H        -2.907919         2.865868         0.941445
 H        -0.856712         2.089527        -0.968830
 H        -0.684670         2.845391         0.410139
 H        -1.235400        -1.518407         0.328015
