19
Iteration:  2830
 O         0.567829         0.266340         0.554874
 C        -0.707049         0.702392         0.833971
 C        -1.342553         0.686833         2.256806
 C        -2.551318        -0.100603         1.652074
 C        -3.323736         0.711180         0.534412
 C        -2.686133         2.033206         0.322811
 C        -1.220590         1.868264        -0.035602
 O        -2.787546        -0.214967        -0.441058
 C        -1.761402        -0.530652         0.433147
 H         1.155012         0.972280         0.843097
 H        -0.678858         0.147123         3.010416
 H        -1.457719         1.733520         2.708496
 H        -3.239836        -0.610852         2.253086
 H        -4.433002         0.820514         0.578584
 H        -3.307539         2.651910        -0.413677
 H        -2.757231         2.653721         1.223415
 H        -1.205599         1.434380        -1.075149
 H        -0.462061         2.779404         0.131056
 H        -1.360596        -1.541295         0.380523
