19
Iteration:  3837charge 0 multiplicity 1
 O         0.665657         0.256721         0.688173
 C        -0.730199         0.631700         0.829953
 C        -1.235862         0.654381         2.241730
 C        -2.524733        -0.017910         1.668234
 C        -3.321617         0.766298         0.532288
 C        -2.771264         2.055957         0.186686
 C        -1.217254         1.833701         0.034403
 O        -2.934306        -0.201654        -0.478027
 C        -1.763894        -0.510480         0.481024
 H         1.180811         1.075935         0.578504
 H        -0.674524        -0.260909         2.678332
 H        -1.360518         1.565690         2.864333
 H        -2.924423        -0.719562         2.332440
 H        -4.344487         0.619788         0.589643
 H        -3.258198         2.229136        -0.862907
 H        -2.994333         2.916672         0.848300
 H        -0.882869         1.740881        -1.023813
 H        -0.682643         2.772745         0.278582
 H        -1.362669        -1.471013         0.105000
