19
Iteration:  4098charge 0 multiplicity 1
 O         0.655307         0.375679         0.692142
 C        -0.670248         0.600239         0.820265
 C        -1.285636         0.572339         2.236265
 C        -2.571510        -0.015674         1.693230
 C        -3.323428         0.758289         0.593404
 C        -2.709943         2.050838         0.227767
 C        -1.227216         1.799843        -0.010783
 O        -2.894836        -0.170167        -0.482281
 C        -1.768771        -0.503243         0.473681
 H         1.031763         1.128420         0.084425
 H        -0.690227        -0.310894         2.605838
 H        -1.357075         1.409240         2.911705
 H        -3.144381        -0.729102         2.233502
 H        -4.422269         0.801697         0.422925
 H        -3.136892         2.396306        -0.754503
 H        -2.958831         2.879484         0.955438
 H        -1.088865         1.275619        -1.010847
 H        -0.525775         2.603611        -0.013386
 H        -1.569722        -1.573572         0.248713
