19
Iteration:  1045
 O         0.608898         0.311719         0.573684
 C        -0.712909         0.645281         0.738957
 C        -1.241960         0.701062         2.300804
 C        -2.591665         0.024720         1.725564
 C        -3.337582         0.732587         0.492457
 C        -2.743434         2.122994         0.253495
 C        -1.192515         1.889492        -0.007620
 O        -2.776658        -0.350846        -0.451351
 C        -1.819357        -0.589905         0.512954
 H         1.284086         1.105883         0.637113
 H        -0.831215        -0.208328         2.767509
 H        -1.452560         1.634761         2.870778
 H        -3.231597        -0.684216         2.390623
 H        -4.408319         0.650185         0.399987
 H        -3.187426         2.688774        -0.544678
 H        -2.995967         2.640604         1.158727
 H        -1.166451         1.611589        -1.125109
 H        -0.574716         2.754685         0.303449
 H        -1.452204        -1.570974         0.419931
