19
Iteration:  1655
 O         0.560294         0.250954         0.700587
 C        -0.751785         0.688786         0.771504
 C        -1.423909         0.732533         2.229363
 C        -2.495900        -0.126466         1.639544
 C        -3.284274         0.700446         0.596958
 C        -2.644576         2.093330         0.348174
 C        -1.185803         1.796741        -0.105749
 O        -2.869547        -0.204498        -0.442103
 C        -1.721742        -0.493385         0.367962
 H         1.189137         0.994672         0.932373
 H        -0.591399         0.278931         2.803028
 H        -1.736704         1.613454         2.640639
 H        -3.037152        -0.925537         2.143301
 H        -4.393210         0.747955         0.724309
 H        -3.297639         2.812950        -0.205058
 H        -2.662734         2.654061         1.275090
 H        -1.011322         1.570337        -1.199699
 H        -0.493554         2.649871        -0.131746
 H        -1.301968        -1.532526         0.147025
