19
Iteration:  3931charge 0 multiplicity 1
 O         0.581700         0.297832         0.720513
 C        -0.776469         0.624416         0.765532
 C        -1.245845         0.686640         2.202356
 C        -2.539484        -0.058290         1.689045
 C        -3.314588         0.711000         0.596577
 C        -2.706694         2.080196         0.284009
 C        -1.202144         1.821699        -0.046056
 O        -2.786603        -0.197789        -0.476224
 C        -1.839112        -0.556801         0.428493
 H         1.080974         1.095077         0.340873
 H        -0.832491        -0.116831         2.751282
 H        -1.294797         1.663811         2.682520
 H        -3.183467        -0.589581         2.438088
 H        -4.465510         0.806876         0.515350
 H        -3.308431         2.387585        -0.561303
 H        -2.812988         2.891258         1.028742
 H        -0.991184         1.684171        -1.119935
 H        -0.535898         2.629386         0.173760
 H        -1.262769        -1.447666         0.244854
