19
Iteration:  3780
 O         0.621393         0.390179         0.655860
 C        -0.751245         0.557533         0.771846
 C        -1.304367         0.696395         2.248163
 C        -2.579066         0.021775         1.676963
 C        -3.307680         0.730134         0.482824
 C        -2.725992         2.072452         0.367261
 C        -1.181768         1.841984        -0.034098
 O        -2.765502        -0.253646        -0.544212
 C        -1.818333        -0.581614         0.531181
 H         0.860040         0.069222        -0.193808
 H        -0.965082         0.127030         3.158217
 H        -1.361163         1.717224         2.644512
 H        -3.109141        -0.634775         2.393503
 H        -4.382205         0.658829         0.497272
 H        -3.277716         2.894722        -0.229030
 H        -2.682178         2.577232         1.351362
 H        -1.185564         1.474964        -1.091297
 H        -0.577338         2.726366         0.297770
 H        -1.365522        -1.541038         0.291405
