19
Iteration:  4690
 O         0.718379         0.392144         0.683986
 C        -0.715603         0.637790         0.735088
 C        -1.346432         0.620830         2.250074
 C        -2.600855        -0.088542         1.644837
 C        -3.355500         0.732984         0.527492
 C        -2.604134         2.049143         0.215303
 C        -1.107851         1.937047         0.122303
 O        -2.944305        -0.246728        -0.450408
 C        -1.851071        -0.579410         0.440274
 H         0.943414         0.613195        -0.284507
 H        -0.900545        -0.134438         2.934948
 H        -1.253206         1.613315         2.675648
 H        -3.317184        -0.681560         2.227599
 H        -4.467908         0.772545         0.582070
 H        -3.103507         2.282654        -0.735742
 H        -3.074524         2.766627         0.964194
 H        -0.707632         1.782752        -0.855704
 H        -0.575354         2.796729         0.520827
 H        -1.327508        -1.539663         0.451235
