19
Iteration:  1891charge 0 multiplicity 1
 O         0.594622         0.231412         0.539077
 C        -0.822439         0.671682         0.785860
 C        -1.266834         0.681577         2.301022
 C        -2.618335        -0.065363         1.668709
 C        -3.327201         0.702277         0.540704
 C        -2.702185         2.096040         0.262082
 C        -1.227893         1.987313         0.106377
 O        -2.704149        -0.228713        -0.463793
 C        -1.751481        -0.559238         0.534861
 H         0.774732         0.386917        -0.323968
 H        -0.758755        -0.107908         2.788232
 H        -1.334175         1.614063         2.799031
 H        -3.258076        -0.820490         2.148731
 H        -4.417224         0.676662         0.399743
 H        -3.081472         2.163165        -0.764828
 H        -3.143200         3.006504         0.798284
 H        -0.925821         1.950140        -0.978621
 H        -0.603985         2.767307         0.543546
 H        -1.275846        -1.535008         0.434336
