19
Iteration:  4665
 O         0.625995         0.417954         0.794867
 C        -0.775635         0.550201         0.746139
 C        -1.238710         0.517333         2.233140
 C        -2.544656        -0.039226         1.744121
 C        -3.306289         0.756150         0.540847
 C        -2.721406         2.235767         0.200203
 C        -1.231804         1.832596        -0.026720
 O        -2.834221        -0.196634        -0.529557
 C        -1.821200        -0.616858         0.454984
 H         0.954676         0.531070        -0.202829
 H        -0.747557        -0.297243         2.878754
 H        -1.070067         1.536955         2.683928
 H        -3.159552        -0.693826         2.439090
 H        -4.401259         0.580707         0.486710
 H        -3.329881         2.552487        -0.684556
 H        -2.785973         3.028412         1.021450
 H        -0.841462         1.594411        -0.924015
 H        -0.630074         2.699033         0.342101
 H        -1.359568        -1.584338         0.444560
