19
Iteration:  3077
 O         0.558107         0.188975         0.696981
 C        -0.734207         0.609185         0.750375
 C        -1.414765         0.801161         2.263734
 C        -2.473166        -0.090554         1.681949
 C        -3.358555         0.722059         0.624649
 C        -2.663506         2.106342         0.318448
 C        -1.203319         1.955603        -0.094744
 O        -2.829780        -0.290299        -0.500136
 C        -1.727449        -0.558307         0.397085
 H         1.252489         0.974919         0.700064
 H        -0.798979         0.181701         2.889505
 H        -1.531437         1.755717         2.716400
 H        -3.045260        -0.906662         2.300215
 H        -4.432066         0.738709         0.631978
 H        -3.261775         2.668731        -0.408151
 H        -2.688554         2.704869         1.238405
 H        -0.901957         1.795801        -1.134424
 H        -0.560873         2.884420         0.102320
 H        -1.166570        -1.417447        -0.045652
