19
Iteration:  1219
 O         0.674305         0.351047         0.816454
 C        -0.730232         0.606914         0.701578
 C        -1.257926         0.736438         2.100565
 C        -2.523473        -0.059466         1.695720
 C        -3.317533         0.737595         0.573540
 C        -2.674674         2.091868         0.338318
 C        -1.232495         1.801573        -0.102632
 O        -2.859106        -0.228258        -0.489839
 C        -1.898204        -0.623818         0.433416
 H         1.052262         1.171118         0.724494
 H        -0.746876         0.147586         2.923610
 H        -1.326454         1.652417         2.805206
 H        -3.141461        -0.699329         2.292992
 H        -4.399857         0.633849         0.627812
 H        -3.166360         2.623164        -0.429127
 H        -2.707348         2.545355         1.397547
 H        -1.301368         1.605142        -1.234852
 H        -0.648022         2.710746         0.028365
 H        -1.418598        -1.535406         0.189757
