19
Iteration:  3278
 O         0.634244         0.198896         0.591988
 C        -0.782953         0.617442         0.769339
 C        -1.298761         0.681438         2.247432
 C        -2.551430        -0.019384         1.702167
 C        -3.294039         0.687036         0.538164
 C        -2.816588         2.077507         0.247698
 C        -1.193097         1.890821         0.078384
 O        -2.745809        -0.181291        -0.475140
 C        -1.813819        -0.517003         0.458610
 H         1.207319         0.910297         0.661318
 H        -0.645151         0.023485         2.813145
 H        -1.275296         1.661713         2.672913
 H        -3.159602        -0.714828         2.284898
 H        -4.403489         0.648972         0.548417
 H        -3.274971         2.462517        -0.685766
 H        -2.746567         2.803491         1.017311
 H        -0.993231         1.806946        -1.016858
 H        -0.855429         2.874686         0.584348
 H        -1.436134        -1.463439         0.185605
