19
Iteration:  1480
 O         0.621477         0.473131         0.541356
 C        -0.774961         0.569513         0.768981
 C        -1.330790         0.597730         2.236555
 C        -2.606529        -0.005161         1.673580
 C        -3.305974         0.790618         0.562747
 C        -2.645610         2.124913         0.246984
 C        -1.158831         1.840122         0.086029
 O        -2.838269        -0.285834        -0.491557
 C        -1.761022        -0.579240         0.485949
 H         1.035751        -0.006442         1.257212
 H        -0.812511        -0.167807         2.818326
 H        -1.334245         1.444498         2.788738
 H        -3.411789        -0.431341         2.219152
 H        -4.416721         0.814513         0.681010
 H        -3.131214         2.409275        -0.745112
 H        -2.834115         2.749379         1.109574
 H        -1.097636         1.599190        -0.994150
 H        -0.447270         2.529969         0.420491
 H        -1.452108        -1.675301         0.347596
