19
Iteration:  3899
 O         0.626711         0.211446         0.481188
 C        -0.725726         0.588439         0.819283
 C        -1.296526         0.736490         2.318504
 C        -2.603040        -0.020571         1.634618
 C        -3.347297         0.753194         0.460919
 C        -2.737958         2.121482         0.316472
 C        -1.255823         1.848101         0.004469
 O        -2.691270        -0.235059        -0.460159
 C        -1.794252        -0.520386         0.554718
 H         1.188059         0.883939         0.769481
 H        -0.970311         0.114689         3.131689
 H        -1.334328         1.676157         2.818687
 H        -3.187106        -0.722014         2.273475
 H        -4.455814         0.619041         0.260030
 H        -3.458447         2.457891        -0.383390
 H        -2.922234         2.729716         1.194676
 H        -1.152904         1.612326        -1.085278
 H        -0.659569         2.683688         0.358223
 H        -1.257630        -1.446578         0.448098
