19
Iteration:  2043
 O         0.647546         0.385893         0.568347
 C        -0.720709         0.637253         0.828712
 C        -1.210542         0.569933         2.338513
 C        -2.523929         0.068732         1.744572
 C        -3.314009         0.704200         0.432296
 C        -2.760515         2.062162         0.168317
 C        -1.214049         1.960698         0.026479
 O        -2.818776        -0.267222        -0.465611
 C        -1.868148        -0.632061         0.542810
 H         0.877314         0.473915        -0.297309
 H        -0.843438        -0.228642         2.980712
 H        -1.137059         1.437385         2.986532
 H        -3.339497        -0.353479         2.422101
 H        -4.430790         0.677184         0.429601
 H        -3.266742         2.341710        -0.675475
 H        -3.141523         2.662936         0.989842
 H        -0.925877         1.796283        -1.023633
 H        -0.588809         2.804584         0.392808
 H        -1.492808        -1.642947         0.608647
