19
Iteration:   648
 O         0.683313         0.316706         0.920289
 C        -0.710090         0.593214         0.738455
 C        -1.219491         0.708161         2.156302
 C        -2.490678         0.004435         1.758524
 C        -3.385618         0.707198         0.583934
 C        -2.781633         2.057526         0.218068
 C        -1.259131         1.831553        -0.158701
 O        -2.887963        -0.201857        -0.484611
 C        -1.791452        -0.569634         0.387898
 H         1.216083         0.909287         0.389793
 H        -0.700307        -0.072604         2.747552
 H        -1.069177         1.668271         2.702483
 H        -3.014966        -0.628281         2.599565
 H        -4.407002         0.685458         0.684064
 H        -3.135734         2.408132        -0.837443
 H        -2.922019         2.922193         0.970166
 H        -1.264792         1.523691        -1.168261
 H        -0.627565         2.698021        -0.017145
 H        -1.521180        -1.626247         0.191426
