19
Iteration:  2136charge 0 multiplicity 1
 O         0.562284         0.291256         0.427957
 C        -0.821537         0.627416         0.825035
 C        -1.305036         0.687489         2.335542
 C        -2.560183        -0.023096         1.736904
 C        -3.264316         0.754765         0.527547
 C        -2.733394         2.088160         0.218834
 C        -1.254726         1.858827         0.007265
 O        -2.712535        -0.284091        -0.483473
 C        -1.773767        -0.558992         0.571314
 H         1.115442         1.110487         0.731753
 H        -0.703004         0.055129         3.014408
 H        -1.239468         1.634746         2.832855
 H        -3.220382        -0.556264         2.370303
 H        -4.349359         0.726660         0.450477
 H        -3.263299         2.567046        -0.707471
 H        -2.745785         2.680198         1.166487
 H        -0.980825         1.575016        -1.045172
 H        -0.667080         2.770765         0.267893
 H        -1.364282        -1.583370         0.567161
