19
Iteration:  2022charge 0 multiplicity 1
 O         0.647267         0.369506         0.549906
 C        -0.746309         0.582092         0.785167
 C        -1.221872         0.649444         2.173706
 C        -2.625146         0.074820         1.701124
 C        -3.374454         0.754907         0.481487
 C        -2.774722         2.154837         0.198878
 C        -1.260519         1.842449         0.188322
 O        -2.739792        -0.348011        -0.473903
 C        -1.739781        -0.564232         0.591230
 H         0.777227        -0.033287        -0.395583
 H        -0.727257        -0.088700         2.790689
 H        -1.038388         1.553149         2.631246
 H        -3.429388        -0.445902         2.311166
 H        -4.478338         0.594046         0.451392
 H        -3.108400         2.651295        -0.669778
 H        -3.045972         2.840216         1.000061
 H        -0.857229         1.876519        -0.862628
 H        -0.740096         2.663495         0.722531
 H        -1.330878        -1.569857         0.803694
