19
Iteration:  4925charge 0 multiplicity 1
 O         0.595535         0.343815         0.849385
 C        -0.767498         0.610418         0.736604
 C        -1.294880         0.579916         2.260303
 C        -2.469470        -0.090507         1.672543
 C        -3.320002         0.752838         0.588202
 C        -2.729594         2.075962         0.220485
 C        -1.181658         1.849254        -0.076027
 O        -2.892498        -0.153267        -0.440958
 C        -1.759976        -0.490844         0.350671
 H         0.993768         0.653780        -0.080454
 H        -0.645681        -0.131766         2.773823
 H        -1.394534         1.514492         2.813361
 H        -3.133893        -0.901161         2.096221
 H        -4.414683         0.761288         0.811282
 H        -3.206691         2.301370        -0.759376
 H        -2.741440         2.957938         0.857664
 H        -0.913010         1.572384        -1.120426
 H        -0.599647         2.656063         0.306159
 H        -1.296041        -1.556873         0.182648
