19
Iteration:  2364charge 0 multiplicity 1
 O         0.692366         0.406290         0.660613
 C        -0.733462         0.627390         0.770364
 C        -1.230002         0.608001         2.320022
 C        -2.581154         0.044159         1.690428
 C        -3.366844         0.729672         0.482803
 C        -2.716893         2.082278         0.351540
 C        -1.318069         1.826126        -0.133127
 O        -2.802938        -0.283300        -0.445684
 C        -1.780033        -0.560767         0.473476
 H         1.103686         0.630650        -0.184238
 H        -0.837931        -0.358481         2.719059
 H        -1.182298         1.473527         3.010212
 H        -3.239141        -0.498174         2.474257
 H        -4.463879         0.867211         0.246346
 H        -3.165503         2.787516        -0.310751
 H        -2.812903         2.530887         1.343298
 H        -1.150837         1.554615        -1.195384
 H        -0.737790         2.689102         0.000085
 H        -1.400419        -1.608979         0.433760
