19
Iteration:  2628
 O         0.648207         0.241544         0.649049
 C        -0.687047         0.608464         0.715447
 C        -1.353919         0.761700         2.213784
 C        -2.475932        -0.031228         1.666036
 C        -3.354243         0.665853         0.556081
 C        -2.741153         2.056602         0.277532
 C        -1.195374         1.888830         0.049816
 O        -2.898388        -0.221699        -0.442328
 C        -1.735717        -0.518238         0.474432
 H         1.135073         0.917054         0.119625
 H        -0.755332         0.075794         2.813156
 H        -1.442297         1.764991         2.663128
 H        -3.116437        -0.630763         2.411154
 H        -4.470498         0.690059         0.462743
 H        -3.167241         2.277893        -0.708288
 H        -3.121541         2.640266         1.128425
 H        -1.041322         1.934268        -1.027331
 H        -0.531681         2.691464         0.408409
 H        -1.341187        -1.551058         0.424237
