19
Iteration:  3603
 O         0.601619         0.247674         0.624021
 C        -0.674621         0.614076         0.684030
 C        -1.212389         0.641790         2.179000
 C        -2.529611         0.064825         1.669452
 C        -3.387606         0.700720         0.540195
 C        -2.725968         2.048664         0.190197
 C        -1.240913         1.950898         0.115391
 O        -2.839887        -0.232307        -0.417982
 C        -1.820919        -0.564929         0.515582
 H         1.091139         0.970973         0.924514
 H        -0.725385        -0.054491         2.853293
 H        -1.245686         1.661638         2.695628
 H        -3.111717        -0.745428         2.260139
 H        -4.426819         0.488248         0.436483
 H        -3.090481         2.250058        -0.833323
 H        -2.997402         2.672060         1.036798
 H        -0.799095         2.101478        -0.885492
 H        -0.675495         2.816621         0.502999
 H        -1.481009        -1.566824         0.421470
