19
Iteration:  2639charge 0 multiplicity 1
 O         0.687610         0.268831         0.651955
 C        -0.739926         0.648843         0.758902
 C        -1.305163         0.748287         2.199800
 C        -2.577508        -0.109909         1.690567
 C        -3.366753         0.698423         0.610641
 C        -2.717964         2.047819         0.254637
 C        -1.160939         1.872993         0.004616
 O        -2.902861        -0.211621        -0.478061
 C        -1.748278        -0.563396         0.467980
 H         1.278977         1.019850         0.199818
 H        -0.718895         0.459145         3.057318
 H        -1.614241         1.796959         2.445036
 H        -2.995068        -1.034426         2.267459
 H        -4.452438         0.679621         0.884468
 H        -3.234783         2.521052        -0.614434
 H        -2.746063         2.922481         0.937453
 H        -0.944434         1.669172        -1.045205
 H        -0.746428         2.826185         0.432907
 H        -1.361929        -1.583597         0.246214
