19
Iteration:  2303
 O         0.628260         0.255048         0.623845
 C        -0.727071         0.672278         0.759858
 C        -1.285865         0.708299         2.199236
 C        -2.516832        -0.094848         1.710413
 C        -3.362976         0.668603         0.614502
 C        -2.765528         2.088341         0.144737
 C        -1.166243         1.981204         0.150373
 O        -2.894967        -0.288972        -0.426770
 C        -1.727180        -0.471663         0.420137
 H         0.822155         0.322024        -0.251215
 H        -0.709987         0.127218         2.890620
 H        -1.342084         1.679772         2.719539
 H        -2.853286        -0.860881         2.355535
 H        -4.421233         0.722309         0.769390
 H        -3.154674         1.868802        -0.933389
 H        -3.219425         3.032775         0.621629
 H        -0.888870         2.071106        -0.921189
 H        -0.429566         2.729994         0.687347
 H        -1.294144        -1.462359         0.360468
