19
Iteration:  2013
 O         0.608314         0.362867         0.547741
 C        -0.759187         0.542036         0.710742
 C        -1.298396         0.660477         2.253508
 C        -2.568082         0.046646         1.687755
 C        -3.341847         0.724096         0.462658
 C        -2.766480         2.111228         0.241709
 C        -1.202282         1.908248         0.112114
 O        -2.749250        -0.288290        -0.429382
 C        -1.751490        -0.538731         0.578279
 H         0.889083        -0.155526        -0.316193
 H        -0.834200         0.028052         3.052727
 H        -1.364581         1.674182         2.554233
 H        -3.190697        -0.598650         2.421814
 H        -4.462975         0.694194         0.412861
 H        -3.197710         2.391748        -0.792080
 H        -3.017394         2.701741         1.133411
 H        -0.803360         2.022105        -0.978050
 H        -0.618179         2.508111         0.769512
 H        -1.266106        -1.587140         0.723883
