19
Iteration:   292
 O         0.609700         0.256151         0.508057
 C        -0.799129         0.675809         0.806076
 C        -1.301361         0.659289         2.313733
 C        -2.576297        -0.046278         1.757807
 C        -3.323934         0.778931         0.587119
 C        -2.771101         2.124453         0.098118
 C        -1.196574         1.886404         0.049452
 O        -2.777271        -0.323140        -0.441538
 C        -1.726008        -0.489274         0.480374
 H         1.218380         0.648171         1.201714
 H        -0.646987        -0.096914         2.875328
 H        -1.387160         1.568755         2.981707
 H        -3.220958        -0.705364         2.323679
 H        -4.454062         0.737743         0.486036
 H        -3.121423         2.058078        -0.973341
 H        -3.100610         3.074912         0.493960
 H        -0.863287         1.738691        -1.002054
 H        -0.532874         2.804213         0.520501
 H        -1.255223        -1.514989         0.350325
