19
Iteration:  4200charge 0 multiplicity 1
 O         0.658638         0.454611         0.693657
 C        -0.869885         0.636037         0.759880
 C        -1.367983         0.561024         2.268795
 C        -2.568893        -0.127062         1.705434
 C        -3.293401         0.753699         0.678956
 C        -2.651806         2.090055         0.195574
 C        -1.190696         1.835618        -0.064817
 O        -2.809157        -0.161886        -0.493049
 C        -1.821138        -0.584990         0.455254
 H         0.829004         0.346450        -0.273313
 H        -0.667403        -0.096589         2.753053
 H        -1.227901         1.516188         2.759583
 H        -3.046996        -0.851649         2.424241
 H        -4.354084         0.851799         0.718644
 H        -3.117325         2.287580        -0.839940
 H        -2.812690         2.844996         0.974317
 H        -0.811186         1.738834        -1.094602
 H        -0.434303         2.557481         0.460770
 H        -1.165041        -1.527891         0.362042
