19
Iteration:  3498
 O         0.681245         0.247312         0.708444
 C        -0.699544         0.663717         0.730829
 C        -1.285846         0.692292         2.234278
 C        -2.512618        -0.083137         1.707279
 C        -3.437364         0.704266         0.588541
 C        -2.680312         2.052151         0.273894
 C        -1.229420         1.886330        -0.031725
 O        -2.848632        -0.206819        -0.487619
 C        -1.813755        -0.520862         0.404634
 H         1.122538         1.201939         0.539680
 H        -0.647361         0.011990         2.861689
 H        -1.413825         1.647202         2.704518
 H        -3.089358        -0.582656         2.434373
 H        -4.555999         0.561886         0.619459
 H        -3.264539         2.585632        -0.505299
 H        -2.924116         2.779581         1.049852
 H        -0.999840         1.594233        -1.086972
 H        -0.524868         2.681259         0.263463
 H        -1.493306        -1.555285         0.131623
