19
Iteration:  1104
 O         0.557071         0.294295         0.666705
 C        -0.750098         0.658940         0.752055
 C        -1.309764         0.707005         2.178492
 C        -2.503869        -0.104334         1.717892
 C        -3.283144         0.732315         0.636751
 C        -2.730215         2.085336         0.189820
 C        -1.191138         1.860072        -0.063047
 O        -2.874068        -0.233773        -0.425459
 C        -1.720073        -0.551181         0.459038
 H         1.174824         0.889403         1.063782
 H        -0.689945         0.188408         2.922198
 H        -1.573211         1.592836         2.727298
 H        -3.155349        -0.868831         2.251328
 H        -4.419245         0.819086         0.679003
 H        -3.189966         2.426521        -0.763207
 H        -2.856936         2.700943         0.951290
 H        -1.068516         1.720105        -1.101675
 H        -0.552567         2.739674         0.163812
 H        -1.117361        -1.521568         0.232052
