19
Iteration:  1657
 O         0.567139         0.259602         0.698263
 C        -0.746907         0.695722         0.763276
 C        -1.429773         0.716326         2.214760
 C        -2.521676        -0.126047         1.656105
 C        -3.272855         0.687270         0.599393
 C        -2.629050         2.115734         0.350427
 C        -1.181398         1.798059        -0.108576
 O        -2.871197        -0.210818        -0.450646
 C        -1.716032        -0.494591         0.371228
 H         1.115378         0.934552         0.951389
 H        -0.558859         0.306659         2.761435
 H        -1.776425         1.754763         2.661196
 H        -3.082128        -0.955447         2.165981
 H        -4.382743         0.702217         0.774420
 H        -3.253202         2.804771        -0.196444
 H        -2.665536         2.638489         1.306509
 H        -1.088351         1.557745        -1.167263
 H        -0.531391         2.618242        -0.101382
 H        -1.318494        -1.540618         0.159530
