19
Iteration:  3412
 O         0.575897         0.190439         0.593889
 C        -0.738788         0.643839         0.785851
 C        -1.333577         0.706742         2.233817
 C        -2.513221        -0.067888         1.646621
 C        -3.272884         0.630052         0.547180
 C        -2.778673         2.115032         0.270189
 C        -1.201052         1.956776         0.026964
 O        -2.806414        -0.202491        -0.488107
 C        -1.758037        -0.549834         0.522587
 H         1.226012         0.814176         0.838080
 H        -0.695908         0.283830         3.039222
 H        -1.388835         1.757615         2.449873
 H        -3.150651        -0.672990         2.230132
 H        -4.402821         0.610151         0.530185
 H        -3.338192         2.651439        -0.499954
 H        -2.880431         2.687182         1.238942
 H        -1.027297         1.999231        -1.103600
 H        -0.403512         2.758199         0.319786
 H        -1.473224        -1.605157         0.300624
