19
Iteration:  2822charge 0 multiplicity 1
 O         0.618356         0.351255         0.521212
 C        -0.764057         0.590849         0.848932
 C        -1.384058         0.714210         2.241518
 C        -2.622772        -0.117652         1.662580
 C        -3.317456         0.733306         0.529300
 C        -2.655009         2.106621         0.323603
 C        -1.207719         1.824784        -0.049634
 O        -2.829868        -0.189825        -0.445885
 C        -1.688363        -0.603971         0.491344
 H         1.177437         0.975929         0.869185
 H        -0.696883         0.174819         3.013056
 H        -1.437578         1.724030         2.819373
 H        -3.170525        -0.797528         2.448332
 H        -4.412947         0.743689         0.475192
 H        -3.272786         2.651177        -0.409649
 H        -2.666495         2.648692         1.351209
 H        -1.265241         1.574911        -1.142490
 H        -0.384387         2.624723         0.001365
 H        -1.192319        -1.567318         0.229136
