19
Iteration:  3698
 O         0.710832         0.339705         0.654338
 C        -0.715113         0.607753         0.743936
 C        -1.288131         0.648822         2.217528
 C        -2.614213         0.000274         1.646792
 C        -3.333379         0.706024         0.554416
 C        -2.772188         2.123125         0.221737
 C        -1.184750         1.855604         0.084958
 O        -2.863482        -0.303438        -0.443461
 C        -1.775834        -0.550466         0.467969
 H         1.014553         0.922122        -0.123181
 H        -0.837289        -0.118148         2.828139
 H        -1.405692         1.577433         2.783589
 H        -3.324338        -0.537393         2.320204
 H        -4.485027         0.743903         0.649243
 H        -3.104253         2.573695        -0.698788
 H        -2.658687         2.785731         1.107187
 H        -0.922333         1.959880        -0.994304
 H        -0.612503         2.729115         0.488209
 H        -1.394147        -1.600314         0.457195
