19
Iteration:  1331
 O         0.602939         0.270497         0.532935
 C        -0.754609         0.611424         0.816898
 C        -1.327830         0.665432         2.236946
 C        -2.561226        -0.087518         1.687802
 C        -3.375875         0.742646         0.546855
 C        -2.668131         2.086625         0.229415
 C        -1.208389         1.886049         0.016550
 O        -2.814238        -0.266056        -0.437095
 C        -1.722557        -0.485415         0.447549
 H         1.184864         0.830070         1.202250
 H        -0.780025        -0.014484         2.903664
 H        -1.506329         1.643135         2.856044
 H        -3.095146        -0.734195         2.429336
 H        -4.449455         0.750782         0.435158
 H        -3.069637         2.653470        -0.578801
 H        -2.953602         2.828434         1.038569
 H        -0.923453         1.897909        -1.055443
 H        -0.704559         2.765770         0.463835
 H        -1.275820        -1.414611         0.416512
