19
Iteration:  3261charge 0 multiplicity 1
 O         0.652366         0.322275         0.625849
 C        -0.700995         0.571560         0.776940
 C        -1.223475         0.645167         2.203578
 C        -2.597566        -0.008794         1.679392
 C        -3.361855         0.725156         0.568201
 C        -2.720476         2.113755         0.301820
 C        -1.215504         1.874429        -0.000634
 O        -2.845077        -0.198109        -0.524303
 C        -1.753661        -0.621629         0.469818
 H         1.001048         1.074387         0.989697
 H        -0.896885        -0.241007         2.808211
 H        -1.505205         1.654524         2.646838
 H        -3.195652        -0.489514         2.460056
 H        -4.476188         0.771478         0.560260
 H        -3.072136         2.700657        -0.556255
 H        -3.250962         2.707570         1.118279
 H        -1.031545         1.668087        -1.047897
 H        -0.561831         2.599053         0.416163
 H        -1.416121        -1.714244         0.421431
