19
Iteration:    76
 O         0.661922         0.340021         0.556577
 C        -0.734820         0.620216         0.772887
 C        -1.245972         0.679508         2.264882
 C        -2.500732        -0.017883         1.678622
 C        -3.361968         0.745031         0.497259
 C        -2.778626         2.140945         0.131992
 C        -1.200204         1.936814         0.071417
 O        -2.874722        -0.285282        -0.419470
 C        -1.771241        -0.646720         0.508736
 H         0.976236         0.053090         1.436390
 H        -0.690249        -0.081751         2.948063
 H        -1.525669         1.684529         2.666300
 H        -3.126028        -0.656066         2.293231
 H        -4.441633         0.635817         0.559407
 H        -2.997662         2.487575        -0.784326
 H        -3.075852         3.001932         0.833672
 H        -0.817784         1.925248        -0.880817
 H        -0.615217         2.718723         0.508753
 H        -1.534034        -1.821985         0.545343
