19
Iteration:  1959
 O         0.665798         0.341114         0.895534
 C        -0.737805         0.657142         0.683969
 C        -1.269332         0.689315         2.240437
 C        -2.529480        -0.083492         1.650416
 C        -3.315085         0.706592         0.602452
 C        -2.728441         2.063003         0.262653
 C        -1.301287         1.849024        -0.177231
 O        -2.864064        -0.148041        -0.422515
 C        -1.778948        -0.629948         0.380501
 H         1.163308         0.366823        -0.021733
 H        -0.510429        -0.076446         2.624299
 H        -1.263529         1.662149         2.795824
 H        -3.131842        -0.660857         2.401095
 H        -4.418689         0.735342         0.694254
 H        -3.315116         2.784731        -0.476088
 H        -2.620418         2.710458         1.166519
 H        -1.112525         1.665357        -1.290974
 H        -0.713892         2.705127         0.043933
 H        -1.359287        -1.683401         0.224285
