19
Iteration:  1503
 O         0.632149         0.372624         0.656437
 C        -0.751385         0.673818         0.736735
 C        -1.329527         0.643565         2.257389
 C        -2.547375        -0.151380         1.697968
 C        -3.387394         0.728121         0.531007
 C        -2.587893         2.103923         0.310503
 C        -1.154091         1.887285        -0.120603
 O        -2.865060        -0.191528        -0.452514
 C        -1.817984        -0.614276         0.424144
 H         0.952213         0.487808         1.574072
 H        -0.666606         0.164074         2.982947
 H        -1.602272         1.487674         2.670344
 H        -3.152523        -0.727149         2.401617
 H        -4.507965         0.828289         0.450119
 H        -3.169110         2.736510        -0.409863
 H        -2.443479         2.550513         1.284463
 H        -1.068484         1.579591        -1.183465
 H        -0.605415         2.779307         0.092970
 H        -1.478506        -1.718635         0.258588
