19
Iteration:  4139charge 0 multiplicity 1
 O         0.627960         0.280098         0.619434
 C        -0.814036         0.635119         0.729466
 C        -1.360870         0.715947         2.139703
 C        -2.583045        -0.031332         1.658961
 C        -3.311433         0.677697         0.497522
 C        -2.694125         2.083672         0.370393
 C        -1.151263         1.918633         0.098782
 O        -2.728523        -0.232524        -0.442815
 C        -1.795915        -0.590981         0.468009
 H         0.833128         0.202058        -0.260494
 H        -0.803495         0.129937         2.905361
 H        -1.503738         1.788580         2.577457
 H        -3.102386        -0.627740         2.399665
 H        -4.443069         0.737943         0.557695
 H        -3.216189         2.630749        -0.387418
 H        -3.016048         2.752953         1.204401
 H        -1.179773         1.885564        -0.974320
 H        -0.504545         2.683726         0.424474
 H        -1.297705        -1.537181         0.610596
