19
Iteration:  4323
 O         0.643362         0.324749         0.590643
 C        -0.757075         0.574458         0.760996
 C        -1.214137         0.618569         2.170569
 C        -2.510300         0.063376         1.708093
 C        -3.371143         0.744605         0.458164
 C        -2.768082         2.065729         0.281004
 C        -1.202306         1.917657         0.040438
 O        -2.847603        -0.304327        -0.469375
 C        -1.852935        -0.584462         0.518920
 H         1.180941         0.930387         1.287467
 H        -0.773493        -0.160721         2.807336
 H        -0.992545         1.549267         2.725390
 H        -3.065070        -0.587817         2.402174
 H        -4.442006         0.763729         0.663294
 H        -3.103239         2.488071        -0.753185
 H        -2.979763         2.939354         0.979814
 H        -0.831182         2.031971        -0.991132
 H        -0.661140         2.769825         0.665843
 H        -1.334196        -1.541368         0.442770
