19
Iteration:  2600
 O         0.561820         0.307663         0.557181
 C        -0.756550         0.617386         0.756360
 C        -1.239244         0.612199         2.298576
 C        -2.552461        -0.027633         1.745603
 C        -3.324976         0.689726         0.459337
 C        -2.740825         2.167109         0.201386
 C        -1.245247         1.921281         0.063145
 O        -2.761400        -0.281434        -0.500301
 C        -1.777152        -0.555564         0.644200
 H         0.866869         0.648029        -0.251845
 H        -0.580970        -0.212657         2.675319
 H        -1.129452         1.625364         2.718628
 H        -3.209426        -0.515766         2.361660
 H        -4.396620         0.594346         0.296905
 H        -3.299510         2.704566        -0.641536
 H        -3.014259         2.797071         1.104860
 H        -0.931235         1.846315        -1.021710
 H        -0.551486         2.842998         0.415686
 H        -1.300554        -1.532518         0.848141
