19
Iteration:  3617charge 0 multiplicity 1
 O         0.638517         0.217249         0.602745
 C        -0.787879         0.642344         0.790024
 C        -1.291945         0.737458         2.196371
 C        -2.522092        -0.032601         1.695274
 C        -3.329826         0.726995         0.576778
 C        -2.769441         2.066481         0.230348
 C        -1.168383         1.901744         0.050156
 O        -2.871738        -0.292181        -0.476055
 C        -1.729914        -0.536946         0.416467
 H         1.241937         0.904167         1.061418
 H        -0.702057        -0.031002         2.809409
 H        -1.342431         1.704236         2.760728
 H        -3.062875        -0.560513         2.450680
 H        -4.384462         0.879288         0.725714
 H        -3.279692         2.571925        -0.674478
 H        -3.032709         2.871724         0.929898
 H        -0.934380         1.906992        -1.043413
 H        -0.708071         2.723519         0.601849
 H        -1.248516        -1.531688         0.316573
