19
Iteration:  1558
 O         0.636828         0.194252         0.535669
 C        -0.815600         0.654910         0.774640
 C        -1.344833         0.652864         2.260579
 C        -2.606508        -0.066851         1.729786
 C        -3.271001         0.713083         0.538217
 C        -2.759558         2.127336         0.223370
 C        -1.159355         1.895678         0.042294
 O        -2.771900        -0.210623        -0.468106
 C        -1.740872        -0.512741         0.487094
 H         1.048025         1.008524         0.628967
 H        -0.762651        -0.029296         2.931868
 H        -1.468969         1.699790         2.783026
 H        -3.240673        -0.695799         2.368250
 H        -4.386769         0.609188         0.463806
 H        -3.456581         2.490204        -0.562273
 H        -2.921670         2.790020         1.091697
 H        -0.718168         1.964605        -0.957448
 H        -0.724896         2.697496         0.538509
 H        -1.208139        -1.534762         0.392211
