19
Iteration:   663
 O         0.643871         0.303799         0.754733
 C        -0.755329         0.682476         0.761706
 C        -1.271907         0.676357         2.277041
 C        -2.547345        -0.008946         1.697888
 C        -3.285535         0.717690         0.558668
 C        -2.729210         2.059235         0.162466
 C        -1.207145         1.839945        -0.100913
 O        -2.865124        -0.262434        -0.445336
 C        -1.792801        -0.565776         0.489204
 H         1.128416         0.732621         0.072716
 H        -0.627555         0.064107         2.891484
 H        -1.447498         1.575998         2.828453
 H        -3.278142        -0.614008         2.282034
 H        -4.425753         0.750641         0.688077
 H        -3.416303         2.529821        -0.596419
 H        -2.831196         2.734755         0.964159
 H        -0.953118         1.754266        -1.207405
 H        -0.647789         2.791629         0.048548
 H        -1.265895        -1.482037         0.369670
