19
Iteration:  2252charge 0 multiplicity 1
 O         0.667289         0.493240         0.637112
 C        -0.757450         0.573823         0.766376
 C        -1.275828         0.670520         2.201555
 C        -2.619496        -0.111593         1.669480
 C        -3.381029         0.777833         0.542511
 C        -2.656563         2.122258         0.373141
 C        -1.263629         1.717156        -0.037101
 O        -2.730972        -0.199790        -0.432149
 C        -1.836959        -0.626462         0.475652
 H         0.965300         0.452059        -0.346054
 H        -0.742212         0.101371         3.048099
 H        -1.376244         1.734862         2.549667
 H        -3.315555        -0.598263         2.514939
 H        -4.505877         0.771889         0.495045
 H        -3.072082         2.537631        -0.471944
 H        -2.636115         2.684589         1.270346
 H        -1.279861         1.404018        -1.069968
 H        -0.695826         2.589928        -0.126459
 H        -1.204288        -1.535665         0.400921
