19
Iteration:   485
 O         0.724127         0.487419         0.827675
 C        -0.732267         0.542409         0.739224
 C        -1.297400         0.672179         2.129981
 C        -2.577448         0.019978         1.678842
 C        -3.351473         0.762907         0.514048
 C        -2.678472         2.076966         0.357466
 C        -1.262696         1.615980        -0.133090
 O        -2.838839        -0.187600        -0.467180
 C        -1.819793        -0.600386         0.485914
 H         1.010394         1.022081         0.158457
 H        -1.014628        -0.006570         2.878633
 H        -1.233343         1.622379         2.613774
 H        -3.117107        -0.646137         2.460668
 H        -4.447404         0.838692         0.501793
 H        -3.169076         2.682097        -0.468684
 H        -2.636515         2.698833         1.185603
 H        -1.225670         1.263457        -1.282601
 H        -0.609356         2.507868         0.003139
 H        -1.460933        -1.542164         0.357350
