19
Iteration:  3728
 O         0.611856         0.349188         0.644338
 C        -0.787176         0.692866         0.780740
 C        -1.263732         0.678987         2.296442
 C        -2.533918        -0.161631         1.704485
 C        -3.272343         0.737698         0.626093
 C        -2.726416         2.104977         0.095794
 C        -1.170128         1.940040         0.092866
 O        -2.855209        -0.238756        -0.499366
 C        -1.809012        -0.580018         0.448230
 H         0.615545        -0.032987        -0.167707
 H        -0.473890         0.044299         2.862076
 H        -1.500298         1.580097         2.903925
 H        -3.164801        -0.656090         2.358532
 H        -4.338316         0.680613         0.739234
 H        -2.956710         2.194110        -0.996447
 H        -2.855101         2.913701         0.800181
 H        -0.902583         1.841450        -0.949787
 H        -0.760043         2.679830         0.754215
 H        -1.394189        -1.645812         0.280640
