19
Iteration:  4807
 O         0.631497         0.358442         0.812661
 C        -0.796624         0.563082         0.744304
 C        -1.281545         0.586839         2.176139
 C        -2.539867        -0.108543         1.674200
 C        -3.320719         0.726726         0.562915
 C        -2.706803         2.070542         0.213358
 C        -1.114199         1.943623        -0.011241
 O        -2.886697        -0.158083        -0.476220
 C        -1.806162        -0.597242         0.438545
 H         1.115955         0.699078        -0.024455
 H        -0.680811        -0.174246         2.782999
 H        -1.161506         1.591712         2.621693
 H        -3.176412        -0.597969         2.445360
 H        -4.439540         0.745494         0.587445
 H        -3.188907         2.476870        -0.686647
 H        -2.908664         2.767792         1.058127
 H        -0.934741         2.142942        -1.156206
 H        -0.604289         2.861550         0.514482
 H        -1.525353        -1.625873         0.339284
