19
Iteration:  3362charge 0 multiplicity 1
 O         0.718053         0.329984         0.680511
 C        -0.721435         0.650428         0.745860
 C        -1.307120         0.586447         2.282514
 C        -2.531369        -0.043887         1.672403
 C        -3.329779         0.802303         0.569506
 C        -2.726682         2.073234         0.273800
 C        -1.284876         1.811424        -0.074513
 O        -2.867964        -0.180807        -0.526212
 C        -1.785484        -0.637382         0.496543
 H         1.131107         1.135110         1.133355
 H        -0.683076        -0.151275         2.816759
 H        -1.338648         1.603793         2.795194
 H        -3.197970        -0.679777         2.367575
 H        -4.390344         0.921609         0.542384
 H        -3.156481         2.699165        -0.544279
 H        -2.783428         2.772215         1.125909
 H        -1.083673         1.636675        -1.106539
 H        -0.763642         2.707716         0.049769
 H        -1.469623        -1.631110         0.192538
