19
Iteration:  2389charge 0 multiplicity 1
 O         0.611610         0.417272         0.723327
 C        -0.749554         0.638162         0.764443
 C        -1.304130         0.694353         2.152501
 C        -2.538194        -0.137464         1.669985
 C        -3.319640         0.717476         0.669928
 C        -2.690814         2.109140         0.325761
 C        -1.258105         1.782777        -0.081276
 O        -2.810765        -0.186283        -0.477732
 C        -1.771163        -0.592590         0.457398
 H         1.044088         0.262295        -0.214356
 H        -0.618021         0.189899         2.790872
 H        -1.615424         1.700182         2.450091
 H        -3.087664        -0.718995         2.312194
 H        -4.422778         0.813175         0.753368
 H        -3.150017         2.717714        -0.486399
 H        -2.781744         2.600136         1.252654
 H        -1.083396         1.455610        -1.166929
 H        -0.504452         2.679489        -0.078952
 H        -1.391832        -1.618036         0.398813
