19
Iteration:  3218
 O         0.592515         0.331276         0.608910
 C        -0.760658         0.676149         0.758424
 C        -1.374635         0.655632         2.292562
 C        -2.551652        -0.106952         1.680838
 C        -3.311491         0.731294         0.539837
 C        -2.606813         2.069889         0.341561
 C        -1.233662         1.818906        -0.091458
 O        -2.800967        -0.157896        -0.472178
 C        -1.785681        -0.570893         0.463805
 H         1.108725         0.804492         1.260657
 H        -0.660096        -0.079608         2.710752
 H        -1.496916         1.591795         2.927957
 H        -3.167746        -0.866324         2.220223
 H        -4.393367         0.719953         0.588878
 H        -3.199623         2.424444        -0.495890
 H        -2.576695         2.903792         1.070431
 H        -1.137536         1.625750        -1.156142
 H        -0.644330         2.741672         0.004800
 H        -1.379597        -1.610898         0.287999
