19
Iteration:  2126charge 0 multiplicity 1
 O         0.565445         0.275116         0.539446
 C        -0.761948         0.663223         0.795844
 C        -1.288637         0.678381         2.210137
 C        -2.583431         0.046181         1.732316
 C        -3.248523         0.657863         0.520040
 C        -2.717798         2.098919         0.291339
 C        -1.252953         1.870957        -0.014444
 O        -2.770908        -0.270044        -0.478316
 C        -1.741197        -0.559714         0.575665
 H         1.184560         1.045495         0.674789
 H        -0.875502        -0.188319         2.711101
 H        -1.396309         1.676691         2.643377
 H        -3.244879        -0.502880         2.308205
 H        -4.312603         0.622628         0.667532
 H        -3.291130         2.739952        -0.533201
 H        -3.067953         2.710228         1.190466
 H        -1.316468         1.475175        -1.039780
 H        -0.470662         2.660538         0.005656
 H        -1.162395        -1.478981         0.498183
