19
Iteration:  4151charge 0 multiplicity 1
 O         0.623324         0.279582         0.652869
 C        -0.674028         0.598337         0.754031
 C        -1.290471         0.739442         2.188218
 C        -2.582813         0.018238         1.667677
 C        -3.371962         0.712077         0.538869
 C        -2.759882         2.083979         0.373949
 C        -1.202860         1.937524         0.082309
 O        -2.788581        -0.289814        -0.577036
 C        -1.766171        -0.551823         0.525921
 H         0.770762        -0.104296        -0.272981
 H        -0.785309         0.052219         2.942279
 H        -1.238069         1.825914         2.540854
 H        -3.230197        -0.598628         2.251615
 H        -4.498004         0.523422         0.553247
 H        -3.051353         2.582127        -0.521521
 H        -2.945490         2.581135         1.356550
 H        -0.905104         1.950371        -0.975755
 H        -0.722148         2.741611         0.522297
 H        -1.346757        -1.527103         0.257115
