19
Iteration:  1392
 O         0.692598         0.345398         0.739452
 C        -0.687138         0.572568         0.774117
 C        -1.326818         0.707628         2.173402
 C        -2.590037        -0.044482         1.650815
 C        -3.334328         0.711169         0.557580
 C        -2.681392         2.057626         0.336892
 C        -1.184080         1.843743        -0.034493
 O        -2.874026        -0.223298        -0.487074
 C        -1.824048        -0.552675         0.422927
 H         1.065818         1.207227         0.285248
 H        -0.892466        -0.093177         2.799557
 H        -1.353671         1.623842         2.641403
 H        -3.114885        -0.612542         2.376129
 H        -4.446176         0.849237         0.634577
 H        -3.231371         2.563349        -0.556885
 H        -2.730421         2.629585         1.296049
 H        -1.129843         1.632945        -1.143162
 H        -0.580579         2.720638         0.154795
 H        -1.523829        -1.708871         0.339480
