19
Iteration:   395charge 0 multiplicity 1
 O         0.662359         0.418065         0.560801
 C        -0.765659         0.571379         0.786769
 C        -1.263638         0.655649         2.222840
 C        -2.567790         0.024393         1.645093
 C        -3.306337         0.776124         0.504475
 C        -2.766996         2.064481         0.085926
 C        -1.218244         1.841517         0.184592
 O        -2.799744        -0.257191        -0.384696
 C        -1.811654        -0.565116         0.544330
 H         0.852179        -0.489548         0.564427
 H        -0.737407        -0.085545         2.916397
 H        -1.210233         1.681947         2.667420
 H        -3.290483        -0.622296         2.208873
 H        -4.369411         0.714450         0.503229
 H        -3.057594         2.143819        -0.941464
 H        -3.148596         2.971145         0.613026
 H        -0.780114         1.858609        -0.885854
 H        -0.709387         2.707057         0.860894
 H        -1.321829        -1.550959         0.425314
