19
Iteration:  2023charge 0 multiplicity 1
 O         0.652020         0.369146         0.548694
 C        -0.743844         0.584680         0.793228
 C        -1.215169         0.654065         2.172493
 C        -2.630188         0.080057         1.699141
 C        -3.371264         0.755156         0.483346
 C        -2.773861         2.149882         0.197511
 C        -1.263566         1.843814         0.194796
 O        -2.738895        -0.351890        -0.476888
 C        -1.748624        -0.568544         0.590898
 H         0.745069         0.000180        -0.361583
 H        -0.714928        -0.125524         2.770747
 H        -1.021832         1.530418         2.650029
 H        -3.429134        -0.454710         2.325189
 H        -4.477903         0.593218         0.458278
 H        -3.110719         2.707643        -0.691543
 H        -3.052921         2.858655         0.981010
 H        -0.864646         1.872484        -0.884761
 H        -0.763815         2.677653         0.688153
 H        -1.333327        -1.608856         0.776859
