19
Iteration:  2554charge 0 multiplicity 1
 O         0.704119         0.407084         0.682016
 C        -0.732649         0.606752         0.740527
 C        -1.278437         0.719276         2.246945
 C        -2.526856        -0.073691         1.699238
 C        -3.370587         0.728071         0.583427
 C        -2.696352         2.067499         0.255968
 C        -1.195882         1.819116        -0.003168
 O        -2.888676        -0.201495        -0.469544
 C        -1.806920        -0.586748         0.502000
 H         0.877872         0.079162        -0.144027
 H        -0.609332         0.081927         2.882134
 H        -1.548112         1.804560         2.494699
 H        -2.924525        -0.882938         2.196911
 H        -4.499271         0.660251         0.618237
 H        -3.300294         2.338954        -0.706554
 H        -3.058703         2.738668         1.066486
 H        -0.964952         1.742636        -1.100777
 H        -0.575320         2.731886         0.262441
 H        -1.525342        -1.625751         0.178781
