19
Iteration:  3662charge 0 multiplicity 1
 O         0.570226         0.303572         0.606349
 C        -0.781986         0.599208         0.743909
 C        -1.313143         0.720880         2.220937
 C        -2.605166        -0.027727         1.705068
 C        -3.321527         0.676329         0.576112
 C        -2.662856         2.110068         0.322267
 C        -1.248164         1.763495        -0.058180
 O        -2.721394        -0.169967        -0.494253
 C        -1.763324        -0.546545         0.509398
 H         1.162125         1.119062         0.740308
 H        -0.677693         0.004918         2.857690
 H        -1.392874         1.664634         2.782142
 H        -3.351232        -0.589370         2.167102
 H        -4.384323         0.461533         0.641585
 H        -3.298802         2.740667        -0.362763
 H        -2.664812         2.749515         1.231956
 H        -1.206781         1.316536        -1.057156
 H        -0.624127         2.633297         0.137455
 H        -1.165046        -1.472730         0.267970
