19
Iteration:  4621charge 0 multiplicity 1
 O         0.682262         0.284309         0.677989
 C        -0.747090         0.581647         0.768998
 C        -1.401696         0.739250         2.294015
 C        -2.592172        -0.118039         1.643037
 C        -3.327679         0.723673         0.543087
 C        -2.696789         2.156003         0.337239
 C        -1.175814         1.925064        -0.008293
 O        -2.805190        -0.273233        -0.516124
 C        -1.740571        -0.565653         0.449094
 H         0.786311         0.232810        -0.385249
 H        -0.772066         0.223409         3.143914
 H        -1.726267         1.816578         2.482196
 H        -3.294571        -0.819206         2.266910
 H        -4.450724         0.798061         0.670148
 H        -3.097552         2.930023        -0.394831
 H        -2.867368         2.730923         1.355119
 H        -1.248202         1.724971        -1.049622
 H        -0.339031         2.663618         0.235829
 H        -1.213428        -1.470732         0.200510
