19
Iteration:  3448charge 0 multiplicity 1
 O         0.590013         0.281704         0.475164
 C        -0.733395         0.616511         0.799451
 C        -1.280618         0.619592         2.307749
 C        -2.592904         0.059051         1.720819
 C        -3.305857         0.720939         0.453355
 C        -2.766478         2.066339         0.226510
 C        -1.187254         1.907154         0.084181
 O        -2.762137        -0.220559        -0.489717
 C        -1.781477        -0.582334         0.552917
 H         1.108609         1.058723         0.552679
 H        -0.887523        -0.186981         2.933502
 H        -1.156738         1.642846         2.771974
 H        -3.229280        -0.674072         2.307445
 H        -4.381969         0.634688         0.604467
 H        -3.204263         2.537415        -0.651767
 H        -3.145177         2.643226         1.113563
 H        -0.781019         1.653768        -0.879599
 H        -0.712159         2.775836         0.625306
 H        -1.455585        -1.636372         0.543945
