19
Iteration:   443charge 0 multiplicity 1
 O         0.560853         0.271522         0.639690
 C        -0.757999         0.663306         0.788097
 C        -1.359108         0.715883         2.299826
 C        -2.540485        -0.015964         1.690855
 C        -3.310763         0.713599         0.527147
 C        -2.665954         2.065527         0.158699
 C        -1.211606         1.946123         0.060522
 O        -2.825300        -0.328317        -0.428787
 C        -1.668077        -0.490751         0.471185
 H         0.748322        -0.126162        -0.253444
 H        -0.716217         0.038305         2.811922
 H        -1.504895         1.680673         2.775670
 H        -3.129538        -0.738981         2.332656
 H        -4.446742         0.758959         0.447753
 H        -3.176914         2.433433        -0.818730
 H        -2.899547         2.779769         0.933975
 H        -0.912108         1.872766        -1.034097
 H        -0.745644         2.748677         0.518726
 H        -1.192985        -1.395907         0.399667
