19
Iteration:  4263charge 0 multiplicity 1
 O         0.574361         0.225174         0.598038
 C        -0.818961         0.645847         0.806460
 C        -1.299423         0.721948         2.200967
 C        -2.550777        -0.075310         1.731161
 C        -3.340026         0.704029         0.504919
 C        -2.694652         2.080583         0.319338
 C        -1.213819         1.929029        -0.033734
 O        -2.737135        -0.194503        -0.480045
 C        -1.756218        -0.592531         0.541541
 H         1.173804         0.949701         0.398578
 H        -0.852361        -0.078109         2.834579
 H        -1.250789         1.777001         2.523501
 H        -3.163974        -0.731546         2.342448
 H        -4.462559         0.617934         0.483467
 H        -3.239873         2.658730        -0.484456
 H        -2.872398         2.650525         1.238350
 H        -1.036890         1.745902        -1.108412
 H        -0.735327         2.810286         0.282826
 H        -1.244606        -1.543184         0.192390
