19
Iteration:  4995
 O         0.556971         0.277789         0.645861
 C        -0.770895         0.597362         0.816800
 C        -1.222903         0.636761         2.332625
 C        -2.560277         0.009731         1.644749
 C        -3.284253         0.698328         0.484182
 C        -2.771078         2.150813         0.291656
 C        -1.231245         1.932979         0.053263
 O        -2.682461        -0.195375        -0.565461
 C        -1.844975        -0.576347         0.489370
 H         0.570161         0.192987        -0.373673
 H        -0.776672        -0.176369         2.915200
 H        -1.314353         1.604156         2.824563
 H        -2.950022        -0.559190         2.464096
 H        -4.340629         0.442731         0.421239
 H        -3.232834         2.558038        -0.588990
 H        -3.089070         2.670349         1.190738
 H        -1.090243         1.715778        -1.048376
 H        -0.443933         2.702331         0.538664
 H        -1.469175        -1.544292         0.456161
