19
Iteration:  3720
 O         0.595664         0.377144         0.634206
 C        -0.791416         0.658022         0.769880
 C        -1.259770         0.702634         2.265129
 C        -2.513573        -0.124838         1.731344
 C        -3.319031         0.701954         0.559413
 C        -2.650075         2.033619         0.142078
 C        -1.153122         1.930022         0.134444
 O        -2.872442        -0.225481        -0.487795
 C        -1.854200        -0.603334         0.491314
 H         0.809843         0.161921        -0.258213
 H        -0.691064        -0.036070         2.791500
 H        -1.446473         1.593394         2.867907
 H        -3.207846        -0.829229         2.233683
 H        -4.442049         0.858210         0.743357
 H        -2.997396         2.211162        -0.874103
 H        -2.927510         2.951318         0.752777
 H        -0.754622         1.960650        -0.892632
 H        -0.634814         2.835245         0.449060
 H        -1.164522        -1.393415         0.165383
