19
Iteration:  1269
 O         0.566954         0.284949         0.513634
 C        -0.754809         0.670226         0.897636
 C        -1.308122         0.600385         2.344447
 C        -2.548655        -0.079906         1.715751
 C        -3.354339         0.741066         0.500478
 C        -2.709502         2.105058         0.208192
 C        -1.171034         1.878721         0.008156
 O        -2.805902        -0.211085        -0.489600
 C        -1.717396        -0.530906         0.495502
 H         1.143905         1.141549         0.380756
 H        -0.751951        -0.081685         2.984101
 H        -1.400977         1.533499         2.826147
 H        -3.293516        -0.664056         2.335589
 H        -4.479334         0.689072         0.508940
 H        -3.115905         2.394179        -0.835324
 H        -2.972775         2.770909         1.044615
 H        -1.006684         1.616178        -0.996937
 H        -0.527653         2.762437         0.266497
 H        -1.381917        -1.645496         0.494569
