19
Iteration:  3096
 O         0.666821         0.225728         0.745344
 C        -0.739695         0.651479         0.767493
 C        -1.281093         0.678017         2.178515
 C        -2.535334        -0.056577         1.670980
 C        -3.300563         0.712006         0.553954
 C        -2.763559         2.098983         0.310589
 C        -1.228818         1.819394        -0.058785
 O        -2.845288        -0.166107        -0.492484
 C        -1.776711        -0.557470         0.454487
 H         1.248291         1.094503         0.672336
 H        -0.637907         0.020717         2.845717
 H        -1.543108         1.746990         2.476757
 H        -3.210192        -0.634378         2.234678
 H        -4.389089         0.696096         0.507769
 H        -3.231269         2.642783        -0.472693
 H        -2.958898         2.709749         1.243902
 H        -1.255329         1.653265        -1.165378
 H        -0.679886         2.838521         0.064079
 H        -1.351695        -1.563077         0.460114
