19
Iteration:  3714charge 0 multiplicity 1
 O         0.586464         0.385159         0.640568
 C        -0.762442         0.618841         0.800507
 C        -1.296186         0.642257         2.222066
 C        -2.536533        -0.059179         1.738578
 C        -3.346008         0.711849         0.534440
 C        -2.630275         2.002299         0.192608
 C        -1.126720         1.946097         0.098172
 O        -2.885092        -0.234240        -0.448764
 C        -1.810413        -0.564761         0.459602
 H         0.918190         0.388375        -0.378829
 H        -0.728129        -0.061734         2.899882
 H        -1.333759         1.657348         2.684816
 H        -3.117600        -0.837380         2.315403
 H        -4.413516         0.809119         0.569638
 H        -3.164121         2.304733        -0.757154
 H        -3.173504         2.798745         0.696547
 H        -0.715596         1.904435        -0.942549
 H        -0.547271         2.845492         0.496224
 H        -1.222928        -1.476093         0.241753
