19
Iteration:  4752charge 0 multiplicity 1
 O         0.672027         0.313349         0.702312
 C        -0.805177         0.618733         0.796102
 C        -1.308615         0.655357         2.257438
 C        -2.555248        -0.045680         1.658431
 C        -3.388926         0.764215         0.531218
 C        -2.793073         2.096636         0.318021
 C        -1.215295         1.803143        -0.027303
 O        -2.685518        -0.139800        -0.545609
 C        -1.819381        -0.575785         0.488804
 H         0.986438         0.075198        -0.185129
 H        -0.718882        -0.221063         2.732166
 H        -1.198251         1.551076         2.928942
 H        -3.287427        -0.579416         2.357740
 H        -4.490898         0.651994         0.433868
 H        -3.181627         2.786000        -0.449650
 H        -2.636781         2.626703         1.295893
 H        -1.056055         1.591292        -1.174256
 H        -0.668697         2.773875         0.309557
 H        -1.278116        -1.510816         0.410946
