19
Iteration:  2283charge 0 multiplicity 1
 O         0.631157         0.326786         0.698210
 C        -0.751298         0.688977         0.757933
 C        -1.182276         0.620651         2.210487
 C        -2.504529        -0.009783         1.694635
 C        -3.330530         0.705942         0.516099
 C        -2.757385         2.038756         0.200597
 C        -1.210543         1.985900         0.008503
 O        -2.880488        -0.311580        -0.424322
 C        -1.814427        -0.543742         0.465573
 H         0.862204         0.069134        -0.223439
 H        -0.587622        -0.140569         2.768480
 H        -1.143035         1.523296         2.862963
 H        -3.257482        -0.554944         2.376136
 H        -4.425325         0.710030         0.549247
 H        -3.317216         2.636551        -0.596622
 H        -2.952845         2.619156         1.213691
 H        -0.833070         1.879342        -0.977539
 H        -0.902864         2.947905         0.464904
 H        -1.218106        -1.458333         0.374580
