19
Iteration:   127charge 0 multiplicity 1
 O         0.588157         0.192049         0.421965
 C        -0.771039         0.621945         0.862231
 C        -1.272573         0.639863         2.362061
 C        -2.612815        -0.004439         1.759767
 C        -3.268561         0.757545         0.437287
 C        -2.773120         2.109462         0.059992
 C        -1.246292         1.989326         0.149481
 O        -2.723453        -0.309423        -0.424891
 C        -1.756871        -0.536438         0.585104
 H         1.021519         0.945647         0.121115
 H        -0.783200        -0.101906         3.006983
 H        -1.280497         1.678246         2.722186
 H        -3.303845        -0.719000         2.275557
 H        -4.361303         0.677876         0.373125
 H        -3.147812         2.615702        -0.924930
 H        -3.155099         2.766008         0.924373
 H        -0.655259         2.054149        -0.832952
 H        -0.793141         2.888431         0.745715
 H        -1.336058        -1.548259         0.480458
