19
Iteration:   569
 O         0.697240         0.212975         0.548243
 C        -0.738603         0.617085         0.822642
 C        -1.266229         0.698643         2.254884
 C        -2.638259         0.117467         1.754476
 C        -3.346143         0.687241         0.457874
 C        -2.895029         2.070508         0.115000
 C        -1.216788         1.978672         0.136329
 O        -2.681029        -0.241747        -0.476769
 C        -1.775145        -0.594105         0.569247
 H         0.880629        -0.366425        -0.283717
 H        -0.776010        -0.079280         2.982662
 H        -1.200006         1.715972         2.800779
 H        -3.317820        -0.388737         2.438585
 H        -4.419808         0.480434         0.403003
 H        -3.255277         2.541582        -0.796418
 H        -3.184487         2.884763         0.975001
 H        -0.800231         1.945810        -0.817857
 H        -0.707970         2.853294         0.619551
 H        -1.334207        -1.716046         0.645846
