19
Iteration:  1518
 O         0.679681         0.248520         0.741915
 C        -0.717827         0.611371         0.741283
 C        -1.364433         0.717031         2.173154
 C        -2.518263        -0.099102         1.664596
 C        -3.321637         0.745895         0.594960
 C        -2.739617         2.095398         0.362149
 C        -1.233222         1.794374        -0.139973
 O        -2.863415        -0.164153        -0.495318
 C        -1.747197        -0.496512         0.393530
 H         1.111310         0.622426         1.623877
 H        -0.749936         0.086332         2.811633
 H        -1.484771         1.712538         2.673906
 H        -3.162152        -0.852946         2.251093
 H        -4.392928         0.730112         0.793702
 H        -3.230612         2.742369        -0.330496
 H        -2.827121         2.677305         1.321431
 H        -1.288126         1.515862        -1.202893
 H        -0.492612         2.699750        -0.008753
 H        -1.212832        -1.390956         0.076258
