19
Iteration:   992charge 0 multiplicity 1
 O         0.624023         0.202830         0.497966
 C        -0.737042         0.657533         0.827505
 C        -1.231309         0.646545         2.309910
 C        -2.549626         0.014730         1.741114
 C        -3.297580         0.702427         0.569474
 C        -2.758849         2.015436         0.008214
 C        -1.227030         2.023074         0.203623
 O        -2.866076        -0.239264        -0.471744
 C        -1.750693        -0.560620         0.514963
 H         1.149681         1.011567         0.124779
 H        -0.654727        -0.057720         2.972289
 H        -1.463185         1.612057         2.855585
 H        -3.254280        -0.698048         2.471179
 H        -4.429255         0.596133         0.553809
 H        -3.135396         2.062049        -1.069437
 H        -3.154907         2.855587         0.504438
 H        -0.596047         2.194798        -0.746223
 H        -0.965142         2.922346         0.782136
 H        -1.374009        -1.595556         0.470371
