19
Iteration:  1787
 O         0.707302         0.315788         0.721272
 C        -0.686535         0.563976         0.746382
 C        -1.328137         0.649037         2.244826
 C        -2.621862        -0.025645         1.650662
 C        -3.380845         0.748723         0.537037
 C        -2.743570         2.116446         0.364128
 C        -1.260424         1.777937        -0.055331
 O        -2.786183        -0.179331        -0.465996
 C        -1.758558        -0.537170         0.400770
 H         1.082520         1.141827         0.176796
 H        -0.824327        -0.135229         2.900051
 H        -1.168235         1.585171         2.826501
 H        -3.279809        -0.635407         2.317206
 H        -4.488212         0.680608         0.462696
 H        -3.165334         2.677712        -0.560180
 H        -2.835322         2.682255         1.315980
 H        -1.252634         1.557167        -1.215311
 H        -0.500168         2.631537         0.320589
 H        -1.321329        -1.574183         0.150662
