19
Iteration:   983charge 0 multiplicity 1
 O         0.584797         0.181525         0.579793
 C        -0.694853         0.676270         0.762215
 C        -1.234814         0.659891         2.270354
 C        -2.567700        -0.000595         1.736987
 C        -3.261333         0.695521         0.564628
 C        -2.794265         2.070858         0.032742
 C        -1.225268         2.030227         0.155368
 O        -2.825304        -0.294960        -0.418131
 C        -1.769982        -0.517820         0.463188
 H         1.229625         0.907166         0.190036
 H        -0.747903        -0.041615         2.951929
 H        -1.247649         1.542896         2.893306
 H        -3.212316        -0.776018         2.330413
 H        -4.418397         0.717838         0.654055
 H        -3.235060         2.217215        -1.055540
 H        -3.304151         2.821479         0.782158
 H        -0.794255         2.170726        -0.840076
 H        -0.832493         2.795564         0.805817
 H        -1.385869        -1.602827         0.312906
