19
Iteration:  2766charge 0 multiplicity 1
 O         0.616110         0.244690         0.627418
 C        -0.744128         0.641570         0.761717
 C        -1.256801         0.610337         2.256743
 C        -2.513076        -0.021598         1.668868
 C        -3.381973         0.754812         0.600034
 C        -2.757902         2.083915         0.187940
 C        -1.206871         1.908531         0.028263
 O        -2.827278        -0.290194        -0.439619
 C        -1.760927        -0.446446         0.433549
 H         1.344166         0.931783         0.805356
 H        -0.598765        -0.198367         2.668565
 H        -1.520817         1.554668         2.796453
 H        -3.043373        -0.688297         2.358583
 H        -4.445216         0.496885         0.605961
 H        -3.235018         2.446841        -0.781270
 H        -2.954965         2.846736         1.025670
 H        -1.070367         1.900689        -1.083482
 H        -0.711064         2.807500         0.427062
 H        -1.303363        -1.432526         0.363570
