19
Iteration:  3921charge 0 multiplicity 1
 O         0.615142         0.241955         0.656304
 C        -0.755802         0.614212         0.767812
 C        -1.328292         0.643355         2.171699
 C        -2.588999         0.024867         1.732825
 C        -3.349699         0.711498         0.569057
 C        -2.712314         2.112105         0.259392
 C        -1.215144         1.861516        -0.030482
 O        -2.749508        -0.161814        -0.498775
 C        -1.752530        -0.590460         0.505015
 H         1.167836         1.132592         0.452206
 H        -0.642251         0.061679         2.751214
 H        -1.383222         1.488356         2.811528
 H        -3.174123        -0.511712         2.504851
 H        -4.384928         0.294378         0.705101
 H        -3.271243         2.573091        -0.552705
 H        -2.837771         2.748622         1.147609
 H        -1.222033         1.493646        -1.084316
 H        -0.722655         2.788904         0.212164
 H        -1.321066        -1.562633         0.264060
