19
Iteration:   713
 O         0.633376         0.316990         0.498044
 C        -0.721706         0.555075         0.857555
 C        -1.300879         0.726561         2.229242
 C        -2.585436         0.127369         1.694067
 C        -3.331065         0.705730         0.459685
 C        -2.770037         2.077931         0.156955
 C        -1.270680         1.888075         0.151033
 O        -2.669018        -0.269221        -0.472895
 C        -1.767608        -0.621921         0.601858
 H         0.558103        -0.347055        -0.333739
 H        -0.858263         0.086170         3.015832
 H        -1.170122         1.785821         2.626441
 H        -3.142575        -0.501827         2.455164
 H        -4.368428         0.652375         0.408662
 H        -3.252630         2.661697        -0.652560
 H        -3.142784         2.652394         1.088142
 H        -0.896896         2.017198        -0.814875
 H        -0.881226         2.761553         0.599768
 H        -1.671901        -1.721409         0.833965
