19
Iteration:  3549
 O         0.563668         0.281842         0.505153
 C        -0.733583         0.672363         0.830576
 C        -1.351068         0.695316         2.259953
 C        -2.636962        -0.112851         1.759953
 C        -3.294790         0.731846         0.536447
 C        -2.669245         2.069279         0.267541
 C        -1.162049         1.828105        -0.002200
 O        -2.782631        -0.197721        -0.509520
 C        -1.756782        -0.544466         0.562587
 H         0.935816         1.126743         0.443055
 H        -0.657996         0.082315         2.854133
 H        -1.455059         1.689764         2.831507
 H        -3.256604        -0.848204         2.394785
 H        -4.345893         0.723376         0.295784
 H        -3.342185         2.620514        -0.464192
 H        -2.864748         2.670431         1.180578
 H        -0.951732         1.580378        -1.082687
 H        -0.468297         2.688220         0.155619
 H        -1.213308        -1.442911         0.318598
