19
Iteration:  1505
 O         0.641426         0.357419         0.675589
 C        -0.745465         0.674200         0.726286
 C        -1.331892         0.648457         2.252505
 C        -2.530086        -0.150337         1.702595
 C        -3.407010         0.739390         0.536588
 C        -2.595598         2.095202         0.305840
 C        -1.171108         1.880853        -0.122717
 O        -2.862878        -0.188120        -0.457852
 C        -1.798442        -0.603948         0.424066
 H         0.948368         0.488388         1.506143
 H        -0.671687         0.168388         2.973246
 H        -1.640204         1.514883         2.670141
 H        -3.234482        -0.734946         2.394595
 H        -4.528138         0.790968         0.488548
 H        -3.166462         2.721989        -0.349546
 H        -2.452933         2.542272         1.310758
 H        -1.100754         1.597271        -1.196848
 H        -0.513148         2.806993         0.055774
 H        -1.517499        -1.693006         0.192474
