19
Iteration:  3047charge 0 multiplicity 1
 O         0.576316         0.256482         0.524010
 C        -0.731030         0.588308         0.818399
 C        -1.318215         0.695724         2.280967
 C        -2.556304        -0.024081         1.723879
 C        -3.350116         0.721457         0.580776
 C        -2.712531         2.082114         0.219538
 C        -1.186424         1.939268         0.028317
 O        -2.750256        -0.238471        -0.496739
 C        -1.779693        -0.574431         0.509225
 H         1.148648         0.835073         0.959626
 H        -0.829504        -0.011932         2.930750
 H        -1.420024         1.749908         2.504544
 H        -3.210213        -0.766144         2.303977
 H        -4.484388         0.746876         0.479824
 H        -3.227607         2.509754        -0.707823
 H        -2.979381         2.806932         0.978003
 H        -0.987108         1.719252        -1.030134
 H        -0.708851         2.847169         0.339589
 H        -1.280731        -1.554651         0.307202
