19
Iteration:  4848
 O         0.646220         0.270236         0.556157
 C        -0.721281         0.602368         0.783965
 C        -1.358030         0.629830         2.353332
 C        -2.613223        -0.021494         1.707130
 C        -3.327847         0.700552         0.469235
 C        -2.757396         2.096147         0.240793
 C        -1.169816         1.960844         0.046480
 O        -2.744632        -0.167032        -0.476947
 C        -1.780573        -0.597618         0.544355
 H         0.884685         0.371673        -0.323680
 H        -0.862199         0.039806         3.094912
 H        -1.603022         1.534661         2.878585
 H        -3.341962        -0.806453         2.050527
 H        -4.427054         0.883916         0.479865
 H        -3.295906         2.569509        -0.593245
 H        -3.001961         2.593045         1.155340
 H        -0.809217         1.798377        -1.012734
 H        -0.494253         2.724355         0.362947
 H        -1.108799        -1.491035         0.336970
