19
Iteration:  2406
 O         0.616294         0.376458         0.744314
 C        -0.761196         0.580312         0.698511
 C        -1.358764         0.754995         2.221706
 C        -2.454775        -0.080159         1.693043
 C        -3.296560         0.714757         0.638964
 C        -2.702864         2.023958         0.285742
 C        -1.190975         1.853695        -0.046091
 O        -2.885338        -0.181261        -0.421457
 C        -1.739034        -0.581514         0.365737
 H         0.822422         0.128156        -0.284887
 H        -0.745533         0.123235         2.961093
 H        -1.521797         1.790271         2.575010
 H        -3.055529        -0.902090         2.339634
 H        -4.374329         0.680544         0.859850
 H        -3.328313         2.227592        -0.581701
 H        -2.825507         3.029983         0.814068
 H        -1.111868         1.872397        -1.108001
 H        -0.628071         2.563102         0.425004
 H        -1.251853        -1.509313        -0.010067
