19
Iteration:  1548charge 0 multiplicity 1
 O         0.600111         0.189202         0.642307
 C        -0.743328         0.595717         0.770193
 C        -1.296695         0.704324         2.242095
 C        -2.522958        -0.078821         1.724932
 C        -3.316938         0.720415         0.543562
 C        -2.815129         2.096837         0.250657
 C        -1.199497         1.896646        -0.014904
 O        -2.754362        -0.146395        -0.508056
 C        -1.802628        -0.534261         0.460208
 H         1.221088         0.868625         0.923572
 H        -0.601485         0.103908         2.841677
 H        -1.431096         1.616669         2.702907
 H        -3.115571        -0.758497         2.384723
 H        -4.423207         0.700034         0.713157
 H        -3.145812         2.588905        -0.664621
 H        -3.068535         2.630248         1.184297
 H        -1.101562         1.801451        -1.104430
 H        -0.672451         2.734672         0.404323
 H        -1.204019        -1.469653         0.178645
