19
Iteration:  1318charge 0 multiplicity 1
 O         0.622207         0.160683         0.537479
 C        -0.739483         0.651266         0.751416
 C        -1.294398         0.752604         2.254750
 C        -2.539350         0.001644         1.716607
 C        -3.343158         0.684362         0.481130
 C        -2.818832         2.104396         0.231145
 C        -1.171973         1.985460         0.189140
 O        -2.804782        -0.276443        -0.489614
 C        -1.770492        -0.568729         0.450330
 H         1.219158         0.679161         1.000427
 H        -0.701205         0.151149         3.040411
 H        -1.272547         1.923036         2.488746
 H        -3.073353        -0.777392         2.215535
 H        -4.450097         0.655532         0.539514
 H        -3.242220         2.438751        -0.653163
 H        -3.002262         2.632162         1.129353
 H        -0.854793         1.876539        -0.904648
 H        -0.622223         2.796761         0.668687
 H        -1.325715        -1.546445         0.245517
