19
Iteration:  4738charge 0 multiplicity 1
 O         0.613786         0.224936         0.715257
 C        -0.721724         0.577052         0.752289
 C        -1.298153         0.594583         2.185895
 C        -2.631447        -0.042316         1.741419
 C        -3.292097         0.732720         0.512965
 C        -2.771980         2.197473         0.296113
 C        -1.283694         1.974806        -0.001605
 O        -2.662129        -0.168543        -0.510728
 C        -1.738929        -0.582146         0.515531
 H         0.793408         0.292042        -0.299932
 H        -0.730030        -0.058098         2.822994
 H        -1.429378         1.554697         2.690816
 H        -3.244792        -0.671670         2.421464
 H        -4.378355         0.613780         0.530543
 H        -3.347884         2.529818        -0.570997
 H        -3.162642         2.794058         1.086679
 H        -1.207127         1.880149        -1.187593
 H        -0.557608         2.736140         0.284388
 H        -1.472558        -1.681687         0.362112
