19
Iteration:  4846
 O         0.655237         0.254879         0.575135
 C        -0.721407         0.605693         0.785506
 C        -1.347701         0.621579         2.363902
 C        -2.602133        -0.021651         1.689821
 C        -3.335974         0.718056         0.464548
 C        -2.771890         2.090382         0.225168
 C        -1.169017         1.963991         0.040805
 O        -2.759397        -0.163330        -0.478164
 C        -1.767356        -0.589672         0.544842
 H         0.863357         0.430026        -0.417089
 H        -0.898039         0.003176         3.109542
 H        -1.553976         1.571919         2.899487
 H        -3.277516        -0.816045         2.096280
 H        -4.452416         0.822367         0.506658
 H        -3.336188         2.572848        -0.604810
 H        -2.985350         2.615488         1.170435
 H        -0.830686         1.774341        -0.939235
 H        -0.552112         2.727524         0.359306
 H        -1.096702        -1.510284         0.332814
