19
Iteration:   406charge 0 multiplicity 1
 O         0.681370         0.348129         0.573473
 C        -0.743268         0.587771         0.726914
 C        -1.292671         0.705020         2.263593
 C        -2.565534         0.022293         1.722422
 C        -3.325689         0.730622         0.508944
 C        -2.703229         2.069370         0.042840
 C        -1.231998         1.996718         0.182289
 O        -2.846321        -0.339356        -0.424755
 C        -1.773463        -0.606898         0.510217
 H         0.765491        -0.535044         0.314855
 H        -0.781970        -0.045064         2.954433
 H        -1.400558         1.721342         2.711120
 H        -3.289268        -0.535277         2.375578
 H        -4.370010         0.774677         0.698877
 H        -2.941498         2.395613        -0.946338
 H        -3.124317         2.804597         0.759020
 H        -0.700598         2.422996        -0.736901
 H        -0.863895         2.769217         1.016217
 H        -1.396881        -1.656190         0.420386
