19
Iteration:  4583
 O         0.671476         0.319258         0.709708
 C        -0.772067         0.605535         0.761257
 C        -1.240095         0.578112         2.243399
 C        -2.621152         0.040883         1.742370
 C        -3.388484         0.752556         0.555637
 C        -2.785908         2.077266         0.176725
 C        -1.138648         1.909271         0.087670
 O        -2.818972        -0.216311        -0.506647
 C        -1.765326        -0.560320         0.434953
 H         1.195942         0.347401        -0.208750
 H        -0.674715        -0.161522         2.768973
 H        -1.108186         1.431748         2.917190
 H        -3.268540        -0.702948         2.147968
 H        -4.465170         0.629562         0.537383
 H        -3.286632         2.338333        -0.762008
 H        -3.029703         2.740155         0.955571
 H        -0.853012         1.985911        -1.002322
 H        -0.746029         2.792188         0.535802
 H        -1.240968        -1.568236         0.281071
