19
Iteration:  2354
 O         0.642621         0.394644         0.636270
 C        -0.696282         0.650423         0.782545
 C        -1.260290         0.568829         2.201599
 C        -2.606956         0.081861         1.641463
 C        -3.360065         0.743334         0.524789
 C        -2.738603         2.075399         0.263761
 C        -1.249986         1.818454        -0.003325
 O        -2.797524        -0.297494        -0.453642
 C        -1.753934        -0.547497         0.551496
 H         0.904350         0.823557        -0.254069
 H        -0.749039        -0.247082         2.725352
 H        -1.119096         1.427406         2.888258
 H        -3.271579        -0.562108         2.237934
 H        -4.448426         0.692855         0.785821
 H        -3.246612         2.769099        -0.371762
 H        -2.724551         2.555686         1.207961
 H        -1.277024         1.490649        -1.082580
 H        -0.651810         2.691366         0.239351
 H        -1.318576        -1.567860         0.591846
