19
Iteration:   402
 O         0.685566         0.375763         0.573017
 C        -0.761351         0.576096         0.726899
 C        -1.272512         0.701144         2.267400
 C        -2.572109         0.014982         1.695275
 C        -3.313177         0.752722         0.502008
 C        -2.710394         2.070135         0.051511
 C        -1.246730         1.948940         0.187422
 O        -2.825367        -0.314448        -0.399488
 C        -1.788919        -0.589796         0.522473
 H         0.796417        -0.631153         0.373769
 H        -0.811885        -0.110962         2.874537
 H        -1.382622         1.754361         2.632857
 H        -3.293750        -0.523430         2.238672
 H        -4.408630         0.756024         0.729322
 H        -2.896616         2.318524        -1.003835
 H        -3.140869         2.832846         0.765641
 H        -0.804946         2.264845        -0.701044
 H        -0.865897         2.669973         0.937575
 H        -1.344318        -1.682667         0.376317
