19
Iteration:    99
 O         0.521502         0.224950         0.371706
 C        -0.791104         0.638095         0.820352
 C        -1.343501         0.693046         2.260582
 C        -2.626947         0.056880         1.800622
 C        -3.272843         0.684225         0.583512
 C        -2.701987         1.960336         0.079456
 C        -1.185154         1.972806         0.210525
 O        -2.713313        -0.253453        -0.473994
 C        -1.754062        -0.455488         0.509979
 H         1.148673         0.428292         1.063877
 H        -0.819678        -0.105869         2.884043
 H        -1.305403         1.722605         2.655526
 H        -3.191494        -0.596869         2.432053
 H        -4.350717         0.543758         0.577494
 H        -2.950330         2.069878        -0.901050
 H        -3.145614         2.831793         0.629937
 H        -0.623947         2.028716        -0.666895
 H        -0.753863         2.735849         0.791105
 H        -1.211143        -1.485853         0.417610
