19
Iteration:  1525charge 0 multiplicity 1
 O         0.668733         0.212113         0.746859
 C        -0.736531         0.635352         0.765824
 C        -1.323837         0.730099         2.163420
 C        -2.548074        -0.066663         1.603704
 C        -3.284783         0.694678         0.620385
 C        -2.755133         2.136020         0.383444
 C        -1.244473         1.787312        -0.104573
 O        -2.855262        -0.142896        -0.496736
 C        -1.742066        -0.505657         0.364816
 H         1.038343         0.699038         1.534478
 H        -0.763456         0.086350         2.861315
 H        -1.397680         1.662221         2.591029
 H        -2.958438        -0.779465         2.305063
 H        -4.405730         0.743004         0.682814
 H        -3.312496         2.518607        -0.519158
 H        -2.777189         2.724882         1.291387
 H        -1.298484         1.422029        -1.143370
 H        -0.741729         2.703392        -0.005687
 H        -1.155499        -1.505468         0.268679
