19
Iteration:  3908charge 0 multiplicity 1
 O         0.657632         0.202688         0.537684
 C        -0.713274         0.619792         0.785779
 C        -1.326952         0.693091         2.299086
 C        -2.607017        -0.016526         1.712944
 C        -3.321457         0.700855         0.491533
 C        -2.811568         2.113215         0.289613
 C        -1.280085         1.843974        -0.038566
 O        -2.714239        -0.167416        -0.478011
 C        -1.721673        -0.564747         0.550831
 H         1.224602         0.929481         0.643521
 H        -0.900933        -0.091603         2.887679
 H        -1.383210         1.722807         2.697262
 H        -3.308892        -0.681739         2.323099
 H        -4.471486         0.872216         0.418293
 H        -3.156894         2.786749        -0.496831
 H        -2.941638         2.720884         1.240177
 H        -1.094165         1.750593        -1.099124
 H        -0.635550         2.672124         0.163343
 H        -1.413291        -1.612031         0.606502
