19
Iteration:  2397
 O         0.585327         0.408852         0.738199
 C        -0.784893         0.602311         0.710461
 C        -1.342947         0.735223         2.161647
 C        -2.479868        -0.096796         1.617852
 C        -3.295090         0.755173         0.720839
 C        -2.674895         2.051152         0.321310
 C        -1.227375         1.783259        -0.066941
 O        -2.830014        -0.185601        -0.432753
 C        -1.721589        -0.592505         0.386944
 H         0.946108         0.176828        -0.248875
 H        -0.818195         0.216232         3.001733
 H        -1.569020         1.737616         2.608514
 H        -3.128831        -0.746841         2.324404
 H        -4.414557         0.737028         0.689750
 H        -3.219461         2.351894        -0.551385
 H        -2.739503         2.795692         1.154091
 H        -1.091857         1.614157        -1.162875
 H        -0.728918         2.648215         0.276908
 H        -1.374771        -1.635909         0.239643
