19
Iteration:  3253charge 0 multiplicity 1
 O         0.681393         0.391191         0.621504
 C        -0.757116         0.578797         0.758283
 C        -1.270794         0.633545         2.200145
 C        -2.578940        -0.028341         1.599448
 C        -3.329446         0.755137         0.513527
 C        -2.683280         2.125659         0.344494
 C        -1.227456         1.788303         0.008653
 O        -2.853341        -0.244764        -0.454727
 C        -1.802800        -0.591646         0.496738
 H         1.090079         1.072758         1.120105
 H        -0.715189        -0.072955         2.814468
 H        -1.398504         1.533574         2.879024
 H        -3.186184        -0.800854         2.242953
 H        -4.381841         0.980482         0.481724
 H        -2.923103         2.611532        -0.626525
 H        -2.755665         2.807800         1.210742
 H        -1.225977         1.610119        -1.075218
 H        -0.700269         2.758438         0.329511
 H        -1.629192        -1.668191         0.331973
