19
Iteration:  4746charge 0 multiplicity 1
 O         0.662630         0.270061         0.716105
 C        -0.772913         0.576490         0.773096
 C        -1.325992         0.640943         2.238824
 C        -2.557572        -0.082850         1.702283
 C        -3.384252         0.765846         0.534298
 C        -2.794247         2.135560         0.311500
 C        -1.242683         1.893455        -0.051049
 O        -2.640148        -0.148731        -0.529280
 C        -1.815179        -0.577808         0.484262
 H         0.878181         0.165095        -0.322411
 H        -0.684067        -0.126417         2.638583
 H        -1.218210         1.523487         2.857921
 H        -3.320198        -0.428372         2.349341
 H        -4.469468         0.667515         0.496065
 H        -3.235147         2.766660        -0.478551
 H        -3.004189         2.724088         1.239799
 H        -1.073431         1.723950        -1.053792
 H        -0.625763         2.688569         0.261848
 H        -1.264112        -1.548108         0.544633
