19
Iteration:  1358
 O         0.651140         0.443674         0.655007
 C        -0.775575         0.575972         0.855050
 C        -1.308005         0.570295         2.291310
 C        -2.586934        -0.104872         1.734362
 C        -3.267293         0.773468         0.613486
 C        -2.644371         2.121446         0.234712
 C        -1.233417         1.808014        -0.168917
 O        -2.802606        -0.170296        -0.490232
 C        -1.844528        -0.601492         0.394116
 H         1.050610         1.296615         1.142099
 H        -0.712135        -0.183691         2.810895
 H        -1.292180         1.368499         2.906980
 H        -3.190707        -0.723639         2.406604
 H        -4.372429         0.829368         0.502008
 H        -3.278877         2.712129        -0.586325
 H        -2.807642         2.757063         1.167806
 H        -1.324543         1.306945        -1.126759
 H        -0.506533         2.616600        -0.265733
 H        -1.593897        -1.748777         0.391728
