19
Iteration:  3515charge 0 multiplicity 1
 O         0.677179         0.227894         0.743943
 C        -0.713756         0.584536         0.772436
 C        -1.242008         0.725964         2.127136
 C        -2.553646        -0.019573         1.670890
 C        -3.299437         0.720741         0.523166
 C        -2.839838         2.137882         0.356847
 C        -1.223255         1.840498        -0.037857
 O        -2.892323        -0.204637        -0.500148
 C        -1.741280        -0.587197         0.469159
 H         1.338542         1.019225         0.536740
 H        -0.630342         0.110886         2.759236
 H        -1.327193         1.814225         2.511349
 H        -3.068329        -0.869959         2.278255
 H        -4.371194         0.760119         0.448655
 H        -3.312971         2.743336        -0.480624
 H        -2.819674         2.591305         1.361801
 H        -1.443047         1.664158        -1.083016
 H        -0.738655         2.777263         0.294410
 H        -1.203593        -1.507615         0.330203
