19
Iteration:   500charge 0 multiplicity 1
 O         0.674590         0.481078         0.802979
 C        -0.723495         0.619802         0.786873
 C        -1.340882         0.649494         2.244888
 C        -2.590492        -0.023300         1.632847
 C        -3.345200         0.748409         0.558917
 C        -2.591096         2.093945         0.243549
 C        -1.147525         1.765789        -0.158026
 O        -2.958273        -0.312631        -0.452356
 C        -1.795442        -0.609380         0.456102
 H         1.059378         1.091316         0.058951
 H        -0.575240         0.051080         2.848618
 H        -1.374205         1.601658         2.854577
 H        -3.284542        -0.590361         2.189612
 H        -4.479423         0.753734         0.706183
 H        -3.151678         2.899319        -0.270801
 H        -2.515132         2.559213         1.334981
 H        -1.132532         1.417201        -1.182935
 H        -0.471340         2.619387        -0.250732
 H        -1.506209        -1.720420         0.362600
