19
Iteration:  1962
 O         0.648121         0.335154         0.873935
 C        -0.735554         0.641340         0.682182
 C        -1.284449         0.701291         2.263613
 C        -2.507576        -0.089396         1.656439
 C        -3.328625         0.698978         0.598081
 C        -2.714935         2.063683         0.251705
 C        -1.294215         1.852561        -0.173032
 O        -2.867282        -0.148431        -0.400326
 C        -1.750089        -0.598122         0.361782
 H         1.086260         0.264502         0.087906
 H        -0.558851        -0.097041         2.651848
 H        -1.290200         1.765782         2.837625
 H        -3.124991        -0.761608         2.261882
 H        -4.412249         0.704014         0.704927
 H        -3.269355         2.744270        -0.531202
 H        -2.654807         2.678442         1.172364
 H        -1.171949         1.658894        -1.240781
 H        -0.683330         2.764565         0.025491
 H        -1.406744        -1.634585         0.210901
