19
Iteration:  2568
 O         0.675011         0.442585         0.561280
 C        -0.712092         0.576276         0.833945
 C        -1.350431         0.661742         2.254387
 C        -2.569251        -0.052119         1.717293
 C        -3.317070         0.690993         0.608097
 C        -2.731394         2.032704         0.216210
 C        -1.198538         1.801789         0.029355
 O        -2.856409        -0.184563        -0.500739
 C        -1.752753        -0.557882         0.491136
 H         0.776237         0.142602        -0.456524
 H        -0.871365         0.071169         3.090372
 H        -1.383355         1.656491         2.724972
 H        -3.282910        -0.467517         2.431806
 H        -4.392927         0.778723         0.701229
 H        -3.121020         2.514388        -0.719343
 H        -2.825371         2.927311         0.848258
 H        -0.995604         1.548338        -1.056844
 H        -0.500939         2.721089         0.517019
 H        -1.296687        -1.544936         0.583706
