19
Iteration:  2952
 O         0.622436         0.187185         0.708997
 C        -0.716427         0.636619         0.723865
 C        -1.307662         0.766720         2.179391
 C        -2.558420        -0.067550         1.745764
 C        -3.335742         0.711599         0.549131
 C        -2.764974         2.027526         0.337899
 C        -1.249528         1.824151        -0.041556
 O        -2.808858        -0.122983        -0.512797
 C        -1.726402        -0.523618         0.420919
 H         1.193341         1.040893         0.500566
 H        -0.725512         0.090069         2.791527
 H        -1.562282         1.746343         2.480314
 H        -2.866227        -0.660052         2.517957
 H        -4.367891         0.424341         0.720677
 H        -3.137122         2.626454        -0.501115
 H        -2.845892         2.683507         1.215687
 H        -1.147881         1.545285        -1.115989
 H        -0.708256         2.798474         0.238092
 H        -1.317281        -1.515780         0.463998
