19
Iteration:  4839
 O         0.675926         0.218670         0.617006
 C        -0.729985         0.625696         0.828553
 C        -1.322862         0.611608         2.367338
 C        -2.564538        -0.046132         1.633282
 C        -3.358715         0.769939         0.486244
 C        -2.791372         2.096119         0.190617
 C        -1.197224         1.926092         0.052792
 O        -2.801434        -0.183375        -0.495983
 C        -1.710731        -0.518254         0.503495
 H         0.747727         0.523712        -0.242730
 H        -0.937446        -0.188236         3.044880
 H        -1.310357         1.599155         2.808125
 H        -3.071207        -0.693231         2.381093
 H        -4.425089         0.525862         0.549143
 H        -3.307754         2.592777        -0.629131
 H        -2.913942         2.752080         1.048212
 H        -0.950836         1.707838        -1.079311
 H        -0.728520         2.893421         0.470344
 H        -1.360597        -1.542922         0.403847
