19
Iteration:  3857
 O         0.621019         0.236100         0.565344
 C        -0.752962         0.603939         0.756926
 C        -1.314534         0.627737         2.238687
 C        -2.599180        -0.009448         1.718032
 C        -3.363628         0.719918         0.587078
 C        -2.730148         2.102106         0.180551
 C        -1.157743         1.993084         0.056930
 O        -2.789720        -0.286141        -0.422899
 C        -1.760349        -0.591804         0.464716
 H         1.110969         1.102596         0.956649
 H        -0.553665         0.064967         2.858359
 H        -1.414597         1.649168         2.602704
 H        -3.240802        -0.747476         2.191198
 H        -4.439865         0.764473         0.673338
 H        -3.047606         2.667698        -0.759520
 H        -2.984510         2.948385         0.801562
 H        -0.818327         2.001083        -1.042309
 H        -0.716279         2.946240         0.471241
 H        -1.430552        -1.639312         0.369026
