19
Iteration:  4623charge 0 multiplicity 1
 O         0.693879         0.281098         0.664742
 C        -0.755569         0.584957         0.803711
 C        -1.410230         0.725974         2.291463
 C        -2.586831        -0.122596         1.634286
 C        -3.336021         0.710947         0.548658
 C        -2.689286         2.158704         0.324331
 C        -1.185531         1.913238        -0.025775
 O        -2.804370        -0.260368        -0.519674
 C        -1.728790        -0.532287         0.454129
 H         0.852168         0.229356        -0.277608
 H        -0.877899         0.170988         3.138293
 H        -1.677766         1.764725         2.515451
 H        -3.278680        -0.724135         2.330211
 H        -4.450519         0.745788         0.738676
 H        -3.119781         2.917832        -0.371088
 H        -2.826907         2.703712         1.355182
 H        -1.310212         1.739796        -1.135596
 H        -0.349100         2.634633         0.219328
 H        -1.257116        -1.469646         0.235523
