19
Iteration:   506
 O         0.662223         0.452010         0.786312
 C        -0.742066         0.700384         0.755164
 C        -1.342486         0.642445         2.275132
 C        -2.573112        -0.071905         1.672277
 C        -3.319770         0.747338         0.536369
 C        -2.552679         2.097877         0.238860
 C        -1.136712         1.843130        -0.124934
 O        -2.975108        -0.342360        -0.444261
 C        -1.819466        -0.633350         0.454932
 H         1.047668         0.992226         0.007000
 H        -0.691760         0.071529         2.892413
 H        -1.441850         1.521689         2.888708
 H        -3.265629        -0.759422         2.301064
 H        -4.378822         0.919024         0.566357
 H        -3.157663         2.764938        -0.424249
 H        -2.503541         2.644964         1.122218
 H        -1.081670         1.351472        -1.198927
 H        -0.543627         2.779575        -0.261946
 H        -1.520607        -1.637677         0.386250
