19
Iteration:   855
 O         0.555890         0.152693         0.426895
 C        -0.730120         0.647240         0.770267
 C        -1.393901         0.771006         2.289949
 C        -2.536112        -0.036594         1.748942
 C        -3.286618         0.686751         0.564003
 C        -2.717521         2.010479         0.119642
 C        -1.180486         1.993301         0.157581
 O        -2.793570        -0.258573        -0.452118
 C        -1.745460        -0.547397         0.510694
 H         1.256562         0.853695         0.710112
 H        -0.880474         0.320879         3.156457
 H        -1.533392         1.900374         2.419118
 H        -3.131165        -0.627906         2.437402
 H        -4.355552         0.621618         0.650653
 H        -3.026654         2.189770        -0.821379
 H        -3.130833         2.866632         0.672995
 H        -0.660470         2.319250        -0.746351
 H        -0.878202         2.775788         1.024814
 H        -1.152644        -1.520316         0.395265
