19
Iteration:  2478charge 0 multiplicity 1
 O         0.655623         0.419406         0.516174
 C        -0.760125         0.548860         0.761657
 C        -1.270517         0.734251         2.326475
 C        -2.623546        -0.041193         1.666995
 C        -3.312767         0.757014         0.592237
 C        -2.681951         2.078294         0.277122
 C        -1.234572         1.776249         0.028607
 O        -2.739850        -0.224800        -0.474038
 C        -1.796364        -0.626486         0.549324
 H         0.728268         0.783844        -0.484785
 H        -0.962128        -0.009729         3.054835
 H        -1.432410         1.755479         2.764962
 H        -3.217411        -0.689990         2.178317
 H        -4.412830         0.660051         0.608053
 H        -3.164645         2.436006        -0.664552
 H        -3.104558         2.860008         0.865926
 H        -1.021884         1.713707        -1.113916
 H        -0.544323         2.696502         0.492842
 H        -1.728764        -1.727243         0.635582
