19
Iteration:  3128
 O         0.609337         0.388591         0.529861
 C        -0.745467         0.566344         0.859247
 C        -1.331009         0.521496         2.312005
 C        -2.599007        -0.008443         1.709234
 C        -3.282812         0.753435         0.547434
 C        -2.694237         2.102016         0.205578
 C        -1.184793         1.829404        -0.009150
 O        -2.795032        -0.203613        -0.502801
 C        -1.820924        -0.570939         0.545456
 H         1.033050         1.219837         0.448015
 H        -0.668495        -0.040870         3.053426
 H        -1.427036         1.581096         2.712536
 H        -3.366688        -0.511146         2.145155
 H        -4.350244         0.638295         0.364731
 H        -3.104167         2.577377        -0.653973
 H        -2.873391         2.753252         1.121297
 H        -0.750753         1.609272        -1.015906
 H        -0.650036         2.749769         0.241747
 H        -1.349594        -1.544132         0.548169
