19
Iteration:  4575
 O         0.710065         0.307434         0.701253
 C        -0.709384         0.639256         0.840073
 C        -1.207339         0.529080         2.275452
 C        -2.600884        -0.032751         1.685968
 C        -3.371692         0.774491         0.510611
 C        -2.806363         2.112661         0.163755
 C        -1.220469         1.887030         0.062435
 O        -2.825518        -0.214303        -0.466237
 C        -1.804181        -0.498011         0.437551
 H         1.234554         0.501885        -0.223361
 H        -0.722415        -0.384924         2.724240
 H        -1.148809         1.516345         2.882316
 H        -3.217522        -0.691834         2.346889
 H        -4.459595         0.695691         0.415641
 H        -3.257605         2.261431        -0.875860
 H        -3.094743         3.021080         0.755212
 H        -0.963064         1.767266        -0.971337
 H        -0.754453         2.770682         0.527751
 H        -1.499112        -1.569942         0.393982
