19
Iteration:  2360
 O         0.662835         0.401156         0.651990
 C        -0.696605         0.642643         0.773547
 C        -1.240490         0.586504         2.282975
 C        -2.604098         0.075855         1.650700
 C        -3.366751         0.734126         0.505441
 C        -2.719814         2.053139         0.304170
 C        -1.306805         1.822340        -0.089935
 O        -2.793867        -0.293984        -0.442413
 C        -1.763819        -0.557874         0.495955
 H         1.076480         0.715119        -0.247847
 H        -0.779073        -0.356836         2.707417
 H        -1.150991         1.439700         2.970611
 H        -3.268333        -0.491889         2.405953
 H        -4.460221         0.880857         0.490729
 H        -3.209571         2.908000        -0.269556
 H        -2.817166         2.617308         1.331858
 H        -1.239729         1.482157        -1.110671
 H        -0.686477         2.702738         0.197655
 H        -1.361724        -1.576685         0.534569
