19
Iteration:  2848charge 0 multiplicity 1
 O         0.585813         0.147330         0.641153
 C        -0.764226         0.628049         0.753888
 C        -1.286039         0.710121         2.236562
 C        -2.535696        -0.011733         1.733814
 C        -3.327300         0.684972         0.582554
 C        -2.783478         2.103793         0.259277
 C        -1.228087         1.960737        -0.013511
 O        -2.813977        -0.231263        -0.557254
 C        -1.710134        -0.502650         0.478845
 H         1.201268         0.881323         0.668697
 H        -0.679909         0.071383         2.821127
 H        -1.265177         1.496761         2.970593
 H        -2.883262        -0.816207         2.439904
 H        -4.394000         0.486260         0.672658
 H        -3.285009         2.495701        -0.613210
 H        -2.924916         2.822789         1.060710
 H        -1.100720         1.969371        -1.070345
 H        -0.711654         2.752299         0.429424
 H        -1.067336        -1.386226         0.332287
