19
Iteration:  3196charge 0 multiplicity 1
 O         0.608947         0.167023         0.638000
 C        -0.733899         0.605182         0.786497
 C        -1.283489         0.678418         2.204826
 C        -2.533184        -0.043905         1.685187
 C        -3.361243         0.706930         0.537890
 C        -2.851708         2.149385         0.286016
 C        -1.205914         1.888725         0.044448
 O        -2.765979        -0.184342        -0.499212
 C        -1.706103        -0.544476         0.431605
 H         1.190795         0.857456         1.078623
 H        -0.714850         0.110921         2.995118
 H        -1.509505         1.760952         2.491493
 H        -3.124185        -0.653953         2.422687
 H        -4.408714         0.630169         0.803492
 H        -3.380734         2.530806        -0.586605
 H        -2.861740         2.968003         1.079006
 H        -1.037440         1.824189        -1.031795
 H        -0.605177         2.816348         0.133369
 H        -1.304757        -1.543643         0.110097
