19
Iteration:  2461charge 0 multiplicity 1
 O         0.615838         0.408511         0.528592
 C        -0.750086         0.587704         0.800709
 C        -1.234769         0.611677         2.238587
 C        -2.576101         0.027985         1.780769
 C        -3.331776         0.739852         0.469421
 C        -2.759315         2.076605         0.161203
 C        -1.189506         1.899627         0.143016
 O        -2.776205        -0.286023        -0.455498
 C        -1.829083        -0.631276         0.552953
 H         0.717668         0.643369        -0.486305
 H        -0.682043        -0.185952         2.826484
 H        -1.225224         1.615271         2.643277
 H        -3.309783        -0.469863         2.566851
 H        -4.428901         0.686739         0.472887
 H        -3.179824         2.527478        -0.740446
 H        -2.849945         2.829668         1.010701
 H        -0.847530         1.868675        -0.851010
 H        -0.648590         2.703558         0.487373
 H        -1.307610        -1.610599         0.580486
