19
Iteration:  2427charge 0 multiplicity 1
 O         0.668785         0.274660         0.701170
 C        -0.725561         0.734626         0.757941
 C        -1.201160         0.648764         2.162452
 C        -2.484294        -0.118864         1.701021
 C        -3.389429         0.761101         0.612381
 C        -2.761661         2.035960         0.148127
 C        -1.160565         2.009177         0.066340
 O        -2.899725        -0.296957        -0.450540
 C        -1.805769        -0.530100         0.456823
 H         0.824813         0.244444        -0.256127
 H        -0.614677         0.066832         2.948771
 H        -1.374527         1.584043         2.688928
 H        -3.179168        -0.785576         2.391159
 H        -4.456531         0.625709         0.598577
 H        -3.303842         2.366086        -0.748456
 H        -2.970302         2.906900         0.897330
 H        -0.960502         1.774382        -0.933472
 H        -0.927716         2.950401         0.471560
 H        -1.373527        -1.549370         0.512526
