19
Iteration:  4137charge 0 multiplicity 1
 O         0.627745         0.281880         0.622337
 C        -0.830458         0.626181         0.730834
 C        -1.361433         0.716779         2.139923
 C        -2.584002        -0.046465         1.674814
 C        -3.303866         0.682297         0.493512
 C        -2.682482         2.099322         0.355376
 C        -1.161406         1.911069         0.093999
 O        -2.735537        -0.222646        -0.433408
 C        -1.769365        -0.591987         0.461061
 H         0.849916         0.261177        -0.360153
 H        -0.809070         0.175609         2.883780
 H        -1.571419         1.725466         2.660509
 H        -3.138184        -0.646775         2.441572
 H        -4.396600         0.758974         0.487167
 H        -3.305422         2.579233        -0.394891
 H        -2.964553         2.729637         1.228011
 H        -1.162527         1.860986        -0.971430
 H        -0.460725         2.730335         0.425941
 H        -1.371079        -1.575385         0.620204
