19
Iteration:  2337
 O         0.629142         0.384995         0.576785
 C        -0.775359         0.576977         0.762619
 C        -1.272367         0.679513         2.252381
 C        -2.559540        -0.075196         1.755117
 C        -3.317915         0.692068         0.556533
 C        -2.724995         2.113735         0.243449
 C        -1.173935         1.897107         0.044938
 O        -2.818517        -0.255584        -0.452705
 C        -1.814265        -0.592366         0.487835
 H         0.898946         0.816158        -0.250588
 H        -0.707989        -0.030599         2.878640
 H        -1.330222         1.684416         2.688986
 H        -3.088463        -0.696656         2.466042
 H        -4.386042         0.749314         0.413988
 H        -3.108953         2.398669        -0.801944
 H        -3.149735         2.984292         0.839785
 H        -0.906212         1.722150        -0.990788
 H        -0.532428         2.696160         0.556100
 H        -1.374616        -1.583143         0.422501
