19
Iteration:  2914
 O         0.630392         0.366661         0.501331
 C        -0.762665         0.638335         0.809176
 C        -1.370137         0.562582         2.245904
 C        -2.551061        -0.039339         1.737808
 C        -3.315935         0.710611         0.519050
 C        -2.644347         2.146820         0.235439
 C        -1.212831         1.860031         0.024130
 O        -2.815406        -0.283145        -0.495246
 C        -1.772226        -0.541662         0.575366
 H         1.133587         1.173115         0.552614
 H        -0.835712        -0.151066         2.923395
 H        -1.479680         1.556168         2.856458
 H        -3.299044        -0.577978         2.446723
 H        -4.403261         0.909638         0.469515
 H        -3.140376         2.723555        -0.569433
 H        -2.808293         2.660371         1.192563
 H        -1.051620         1.574474        -1.007878
 H        -0.558912         2.671487         0.157183
 H        -1.420968        -1.613163         0.550224
