19
Iteration:  2336
 O         0.625723         0.381532         0.577873
 C        -0.769695         0.579806         0.759050
 C        -1.272729         0.681380         2.260977
 C        -2.562835        -0.081247         1.759792
 C        -3.319364         0.691368         0.557068
 C        -2.721110         2.109318         0.238989
 C        -1.177405         1.902242         0.046403
 O        -2.817316        -0.252292        -0.450069
 C        -1.814141        -0.599499         0.480106
 H         0.916431         0.828032        -0.289628
 H        -0.698896         0.016147         2.897107
 H        -1.337929         1.686282         2.696340
 H        -3.071461        -0.667859         2.453808
 H        -4.383945         0.777683         0.425677
 H        -3.114017         2.394839        -0.803136
 H        -3.141885         2.972673         0.803341
 H        -0.920761         1.738007        -1.011897
 H        -0.530475         2.689281         0.601013
 H        -1.380657        -1.590678         0.396779
