19
Iteration:  2284
 O         0.629764         0.321132         0.694114
 C        -0.751083         0.688810         0.752747
 C        -1.179400         0.624900         2.214635
 C        -2.501899        -0.010467         1.693873
 C        -3.343938         0.705407         0.523266
 C        -2.754675         2.036679         0.200259
 C        -1.205085         1.995781         0.015778
 O        -2.881396        -0.314098        -0.424046
 C        -1.809553        -0.542430         0.464754
 H         0.858484         0.082293        -0.177394
 H        -0.566014        -0.151739         2.772564
 H        -1.155198         1.537223         2.853242
 H        -3.286161        -0.570618         2.372935
 H        -4.453891         0.700254         0.525461
 H        -3.253611         2.619340        -0.591601
 H        -2.979161         2.651012         1.160675
 H        -0.841464         1.869759        -0.974964
 H        -0.930623         2.932188         0.455029
 H        -1.195013        -1.451175         0.340231
