19
Iteration:  3051charge 0 multiplicity 1
 O         0.538771         0.250063         0.546461
 C        -0.715011         0.605428         0.803264
 C        -1.330360         0.684355         2.236443
 C        -2.565699        -0.050568         1.711977
 C        -3.333090         0.705843         0.556669
 C        -2.678976         2.060430         0.244129
 C        -1.216338         1.961360         0.018784
 O        -2.766775        -0.239991        -0.481006
 C        -1.776841        -0.538710         0.530932
 H         1.293600         0.860108         0.941774
 H        -0.710613         0.069174         3.023578
 H        -1.547361         1.789174         2.487735
 H        -3.153435        -0.718723         2.224155
 H        -4.450997         0.706853         0.598437
 H        -3.182942         2.433015        -0.637578
 H        -2.941146         2.802751         1.043974
 H        -0.836810         1.710034        -1.003958
 H        -0.491714         2.831282         0.227204
 H        -1.314042        -1.472755         0.256006
