19
Iteration:  1008
 O         0.569668         0.326245         0.424595
 C        -0.730653         0.593646         0.797589
 C        -1.281316         0.650957         2.293334
 C        -2.581433        -0.017367         1.740861
 C        -3.386042         0.754268         0.528087
 C        -2.702345         2.018404         0.037645
 C        -1.165125         1.885733         0.237412
 O        -2.771014        -0.278068        -0.408445
 C        -1.801911        -0.526929         0.545130
 H         1.002271         1.273737         0.204674
 H        -0.860268         0.005622         3.055667
 H        -1.138682         1.550493         2.877611
 H        -3.132767        -0.619862         2.317436
 H        -4.466129         0.816063         0.654501
 H        -2.810691         1.958305        -1.058709
 H        -3.290569         3.039206         0.426986
 H        -0.741533         2.100806        -0.699097
 H        -0.636294         2.643173         0.862097
 H        -1.296559        -1.534189         0.375004
