19
Iteration:  4771
 O         0.664133         0.455240         0.730870
 C        -0.694791         0.533861         0.852969
 C        -1.358889         0.614542         2.245852
 C        -2.584431        -0.060048         1.658767
 C        -3.331500         0.710441         0.492240
 C        -2.609670         2.075226         0.368345
 C        -1.193555         1.833626        -0.019008
 O        -2.894369        -0.190420        -0.518097
 C        -1.766317        -0.504046         0.392775
 H         0.763539         0.103966        -0.238468
 H        -0.838734        -0.008301         2.920544
 H        -1.356662         1.633799         2.611184
 H        -3.335139        -0.652049         2.233073
 H        -4.410552         0.913379         0.538321
 H        -3.030298         2.640292        -0.478009
 H        -2.954121         2.602563         1.214128
 H        -1.208399         1.394239        -1.124896
 H        -0.429759         2.603575         0.033597
 H        -1.419356        -1.588693         0.427246
