19
Iteration:  1901charge 0 multiplicity 1
 O         0.615059         0.325391         0.497825
 C        -0.776769         0.640841         0.815159
 C        -1.352613         0.614030         2.360832
 C        -2.609563        -0.050263         1.723618
 C        -3.305915         0.691184         0.539193
 C        -2.693405         2.104104         0.197737
 C        -1.144174         1.937263         0.094920
 O        -2.748326        -0.256089        -0.500055
 C        -1.792217        -0.529361         0.503269
 H         0.774054         0.558526        -0.413620
 H        -0.831197         0.016588         3.030945
 H        -1.447609         1.520433         2.826282
 H        -3.222645        -0.706477         2.351141
 H        -4.406050         0.672038         0.550734
 H        -3.107200         2.474910        -0.715775
 H        -2.952968         2.771355         1.059827
 H        -1.030845         1.719274        -0.976916
 H        -0.538895         2.806164         0.427076
 H        -1.380687        -1.519692         0.516782
