19
Iteration:  3697
 O         0.718203         0.336094         0.655145
 C        -0.714030         0.605849         0.742122
 C        -1.288170         0.659171         2.216977
 C        -2.611248         0.000001         1.648247
 C        -3.338811         0.708826         0.551611
 C        -2.771634         2.129095         0.226158
 C        -1.194818         1.849945         0.085707
 O        -2.860732        -0.305011        -0.449205
 C        -1.783426        -0.559240         0.476440
 H         1.063041         0.953912        -0.126894
 H        -0.833498        -0.146757         2.819073
 H        -1.408232         1.567731         2.810358
 H        -3.323550        -0.522198         2.268981
 H        -4.466303         0.735426         0.669921
 H        -3.129438         2.626770        -0.686026
 H        -2.657795         2.799731         1.094820
 H        -0.922327         1.966209        -0.976837
 H        -0.630499         2.711098         0.451009
 H        -1.360941        -1.603524         0.453177
