19
Iteration:  1792charge 0 multiplicity 1
 O         0.691544         0.359255         0.724332
 C        -0.740067         0.570173         0.762342
 C        -1.308675         0.618618         2.233234
 C        -2.608734        -0.027204         1.623745
 C        -3.365210         0.731412         0.529477
 C        -2.704847         2.147454         0.362303
 C        -1.249494         1.732057        -0.053214
 O        -2.753709        -0.163368        -0.459026
 C        -1.806634        -0.557472         0.426671
 H         1.059880         1.016036         0.227164
 H        -0.815492        -0.144980         2.776559
 H        -1.308331         1.581893         2.768752
 H        -3.228955        -0.639242         2.261354
 H        -4.448514         0.597389         0.568123
 H        -3.203314         2.730190        -0.351399
 H        -2.792895         2.776610         1.258336
 H        -1.301728         1.558631        -1.071309
 H        -0.587629         2.592400        -0.027183
 H        -1.346788        -1.468208         0.172050
