19
Iteration:  1479charge 0 multiplicity 1
 O         0.626823         0.471958         0.539146
 C        -0.771104         0.564623         0.765814
 C        -1.323742         0.585332         2.241838
 C        -2.607211         0.003417         1.668479
 C        -3.322679         0.790248         0.560932
 C        -2.650679         2.123719         0.240213
 C        -1.162636         1.840728         0.094221
 O        -2.832159        -0.283250        -0.487092
 C        -1.754433        -0.582862         0.480615
 H         0.990225        -0.030969         1.206170
 H        -0.798319        -0.162416         2.841238
 H        -1.348763         1.509233         2.842560
 H        -3.399257        -0.394057         2.241213
 H        -4.425270         0.825133         0.660076
 H        -3.117071         2.407977        -0.765615
 H        -2.831328         2.762030         1.096327
 H        -1.106737         1.597030        -0.969093
 H        -0.476274         2.547356         0.443857
 H        -1.466459        -1.659440         0.374129
