19
Iteration:   625charge 0 multiplicity 1
 O         0.727220         0.396165         0.851966
 C        -0.709289         0.595350         0.735791
 C        -1.341723         0.699907         2.163073
 C        -2.563281        -0.037691         1.666208
 C        -3.348380         0.754765         0.604191
 C        -2.721336         2.052553         0.266013
 C        -1.221891         1.733011        -0.170055
 O        -2.875976        -0.185768        -0.429405
 C        -1.773336        -0.590534         0.441969
 H         1.251976         0.714237         0.013582
 H        -0.607864         0.243437         2.892102
 H        -1.594626         1.738938         2.532742
 H        -3.249984        -0.713480         2.251160
 H        -4.401887         0.706545         0.663455
 H        -3.215646         2.495875        -0.647098
 H        -2.741302         2.857165         1.137209
 H        -1.106414         1.540714        -1.207334
 H        -0.628016         2.600796         0.135730
 H        -1.549849        -1.722369         0.428236
