19
Iteration:  2501
 O         0.655180         0.312295         0.641075
 C        -0.743590         0.675078         0.815035
 C        -1.290282         0.693011         2.193037
 C        -2.570267        -0.080773         1.741437
 C        -3.365463         0.711635         0.562382
 C        -2.683310         2.071576         0.265760
 C        -1.237024         1.790295        -0.063567
 O        -2.810889        -0.208152        -0.431553
 C        -1.743151        -0.542777         0.474119
 H         0.820212         0.720651        -0.156059
 H        -0.734449         0.119338         2.968199
 H        -1.590049         1.710856         2.534063
 H        -3.081591        -0.586940         2.516535
 H        -4.455773         0.631083         0.635486
 H        -3.204272         2.788957        -0.390245
 H        -2.966420         2.632932         1.144477
 H        -1.123004         1.428041        -1.154003
 H        -0.636956         2.861344         0.092744
 H        -1.310844        -1.476689         0.041674
