19
Iteration:   252
 O         0.603348         0.298637         0.449173
 C        -0.705284         0.578278         0.779946
 C        -1.326785         0.681008         2.237100
 C        -2.638287         0.091051         1.737882
 C        -3.321054         0.754003         0.431350
 C        -2.727260         2.080039         0.153819
 C        -1.179214         1.887551         0.222013
 O        -2.731392        -0.371020        -0.458470
 C        -1.821091        -0.560247         0.620373
 H         0.959895         0.978848        -0.100897
 H        -0.769008         0.069690         3.005029
 H        -1.134113         1.618597         2.804273
 H        -3.262332        -0.460174         2.414866
 H        -4.374647         0.761262         0.414071
 H        -3.007579         2.407806        -0.799161
 H        -3.341410         2.862137         0.828265
 H        -0.888587         2.018388        -0.789308
 H        -0.685087         2.596051         0.876397
 H        -1.195969        -1.528405         0.737685
