19
Iteration:  4144
 O         0.615641         0.281564         0.638667
 C        -0.739577         0.632822         0.733226
 C        -1.347081         0.726954         2.165163
 C        -2.578099         0.003279         1.632735
 C        -3.343923         0.685441         0.523220
 C        -2.728589         2.060335         0.401835
 C        -1.164291         1.929025         0.090911
 O        -2.736182        -0.261364        -0.497642
 C        -1.828395        -0.577294         0.512848
 H         0.847077         0.036349        -0.369750
 H        -0.825710         0.070079         2.871496
 H        -1.319157         1.765933         2.358331
 H        -3.130296        -0.646731         2.329666
 H        -4.416599         0.632958         0.642296
 H        -3.004115         2.726394        -0.508371
 H        -3.056432         2.704175         1.221442
 H        -1.106430         1.920233        -1.043157
 H        -0.504740         2.765618         0.517298
 H        -1.170687        -1.511245         0.446110
