19
Iteration:  2216charge 0 multiplicity 1
 O         0.640719         0.304294         0.691264
 C        -0.718609         0.689503         0.698299
 C        -1.307604         0.658471         2.256908
 C        -2.549441        -0.064582         1.660793
 C        -3.316929         0.752966         0.628614
 C        -2.694252         2.054170         0.277581
 C        -1.223579         1.893327        -0.070927
 O        -2.853286        -0.290959        -0.451896
 C        -1.785950        -0.569340         0.455662
 H         1.161994         0.922842         0.082044
 H        -0.782413        -0.014430         2.918429
 H        -1.438736         1.669587         2.752383
 H        -3.162625        -0.639559         2.343669
 H        -4.387655         0.771905         0.714658
 H        -3.300131         2.529976        -0.571755
 H        -2.861170         2.912495         1.012235
 H        -1.186339         1.699314        -1.100073
 H        -0.607032         2.758098         0.282781
 H        -1.254116        -1.488793         0.293198
