19
Iteration:  4969
 O         0.726742         0.341458         0.628249
 C        -0.700943         0.556162         0.740548
 C        -1.360112         0.643640         2.230958
 C        -2.681693        -0.007746         1.623051
 C        -3.341966         0.755908         0.479081
 C        -2.678368         2.088366         0.308736
 C        -1.230655         1.865988         0.086539
 O        -2.808403        -0.246693        -0.467713
 C        -1.755104        -0.501259         0.524988
 H         0.965413         0.403759        -0.398422
 H        -1.034344        -0.157335         2.930549
 H        -1.356342         1.601018         2.740868
 H        -3.104905        -0.640106         2.422874
 H        -4.448748         0.770467         0.353816
 H        -3.136378         2.676418        -0.518461
 H        -2.931584         2.425525         1.325704
 H        -1.046568         1.925118        -1.007923
 H        -0.647985         2.586587         0.607540
 H        -1.337763        -1.602239         0.486010
