19
Iteration:  1925charge 0 multiplicity 1
 O         0.704359         0.485507         0.632886
 C        -0.763735         0.564281         0.816413
 C        -1.290663         0.658205         2.252400
 C        -2.615897        -0.011501         1.606868
 C        -3.356263         0.746071         0.487316
 C        -2.634602         2.090591         0.302682
 C        -1.218624         1.749580         0.027046
 O        -2.873417        -0.240378        -0.436375
 C        -1.779657        -0.638622         0.480369
 H         0.914468         0.927596        -0.181454
 H        -0.788803        -0.041107         2.968503
 H        -1.246445         1.615007         2.811313
 H        -3.264260        -0.643192         2.256098
 H        -4.458480         0.842329         0.447282
 H        -3.086214         2.701102        -0.561084
 H        -2.706970         2.683761         1.254709
 H        -1.092097         1.565238        -1.084821
 H        -0.574927         2.548149         0.355866
 H        -1.453495        -1.707333         0.353039
