19
Iteration:  1653charge 0 multiplicity 1
 O         0.556828         0.243238         0.703124
 C        -0.759283         0.680394         0.778626
 C        -1.408645         0.741019         2.240393
 C        -2.469456        -0.129033         1.623437
 C        -3.300776         0.716447         0.595184
 C        -2.662196         2.070881         0.344403
 C        -1.189574         1.801616        -0.108112
 O        -2.867236        -0.197375        -0.436865
 C        -1.727555        -0.499576         0.367935
 H         1.242563         1.036680         0.906209
 H        -0.656112         0.238707         2.864033
 H        -1.717441         1.567486         2.667315
 H        -3.004394        -0.890933         2.136330
 H        -4.388073         0.794792         0.664363
 H        -3.324137         2.787784        -0.244994
 H        -2.643333         2.670277         1.272226
 H        -0.967880         1.559767        -1.208595
 H        -0.457770         2.708044        -0.123533
 H        -1.288510        -1.477020         0.142660
