19
Iteration:    12charge 0 multiplicity 1
 O         0.643470         0.475466         0.624769
 C        -0.768317         0.585540         0.788680
 C        -1.382409         0.644012         2.251767
 C        -2.615170        -0.072603         1.683955
 C        -3.263921         0.817305         0.593752
 C        -2.634987         2.141460         0.302514
 C        -1.264457         1.747260        -0.096521
 O        -2.790476        -0.239597        -0.443760
 C        -1.713882        -0.629065         0.466486
 H         0.847933        -0.332936         0.935688
 H        -0.707326         0.258750         3.014297
 H        -1.540404         1.695699         2.397933
 H        -3.373210        -0.583503         2.265250
 H        -4.346224         0.912537         0.583457
 H        -3.204060         2.477712        -0.580304
 H        -2.746219         2.909640         1.062469
 H        -1.372296         1.391685        -1.142250
 H        -0.621816         2.616757        -0.095761
 H        -1.237854        -1.605148         0.215724
