19
Iteration:  4857charge 0 multiplicity 1
 O         0.599322         0.336870         0.533805
 C        -0.768408         0.615206         0.788413
 C        -1.408606         0.664014         2.270061
 C        -2.663559        -0.084137         1.723575
 C        -3.264342         0.703563         0.516494
 C        -2.644092         2.112116         0.318723
 C        -1.153238         1.899580         0.066388
 O        -2.686234        -0.232087        -0.493678
 C        -1.802629        -0.555843         0.515091
 H         0.813241         0.271706        -0.359483
 H        -0.770126         0.058288         2.876330
 H        -1.607100         1.673474         2.693973
 H        -3.440751        -0.616442         2.347385
 H        -4.370475         0.704398         0.362045
 H        -3.052395         2.605038        -0.595469
 H        -2.959537         2.771969         1.151903
 H        -1.083703         1.910060        -0.983165
 H        -0.594314         2.673542         0.482788
 H        -1.454614        -1.667001         0.436621
