19
Iteration:  3058charge 0 multiplicity 1
 O         0.534147         0.216413         0.587382
 C        -0.769023         0.704645         0.775617
 C        -1.346380         0.692965         2.185018
 C        -2.573091        -0.101154         1.674293
 C        -3.269491         0.679440         0.510886
 C        -2.664071         2.049918         0.299055
 C        -1.172290         1.938327        -0.001196
 O        -2.816393        -0.232237        -0.436300
 C        -1.743413        -0.486130         0.503335
 H         1.265318         0.872780         0.835339
 H        -0.711817         0.429188         3.001017
 H        -1.656488         1.622282         2.659700
 H        -3.207746        -0.785860         2.350751
 H        -4.377920         0.667547         0.753740
 H        -3.186169         2.419233        -0.654335
 H        -2.841743         2.704918         1.129764
 H        -0.914449         1.702765        -1.043360
 H        -0.487035         2.692472         0.249597
 H        -1.292462        -1.497666         0.369197
