19
Iteration:   542
 O         0.607432         0.259791         0.695122
 C        -0.755459         0.582793         0.758044
 C        -1.240252         0.748280         2.239212
 C        -2.514409         0.031045         1.701607
 C        -3.358950         0.724361         0.578837
 C        -2.770143         2.021192         0.101498
 C        -1.253604         1.902421         0.117601
 O        -2.798888        -0.198841        -0.468601
 C        -1.742382        -0.560058         0.473994
 H         1.021412        -0.000210        -0.222619
 H        -0.822252         0.046919         2.950598
 H        -1.279026         1.766894         2.590371
 H        -3.031922        -0.740920         2.331531
 H        -4.504814         0.721844         0.571106
 H        -3.113286         2.180415        -0.955759
 H        -3.013853         2.926012         0.661718
 H        -0.745380         1.903073        -0.981877
 H        -0.845163         2.697436         0.730706
 H        -1.356270        -1.559073         0.494731
