19
Iteration:  3609charge 0 multiplicity 1
 O         0.584098         0.243184         0.630159
 C        -0.678244         0.591184         0.702454
 C        -1.242923         0.720624         2.173790
 C        -2.503061         0.011447         1.691567
 C        -3.372465         0.731817         0.553311
 C        -2.738550         2.062797         0.211293
 C        -1.212827         1.938792         0.099013
 O        -2.860790        -0.274383        -0.450722
 C        -1.758462        -0.534804         0.455811
 H         1.209515         0.908248         0.987379
 H        -0.803443        -0.106990         2.794659
 H        -1.362993         1.585117         2.799961
 H        -3.069394        -0.573689         2.374229
 H        -4.527737         0.735341         0.491306
 H        -3.326717         2.215685        -0.710861
 H        -2.938446         2.783812         1.050282
 H        -0.836672         1.825295        -0.940755
 H        -0.792225         2.791202         0.684277
 H        -1.422674        -1.614765         0.383037
