19
Iteration:  1095charge 0 multiplicity 1
 O         0.577230         0.254192         0.703445
 C        -0.798113         0.655586         0.752701
 C        -1.330725         0.746775         2.201728
 C        -2.477400        -0.207390         1.726776
 C        -3.283589         0.688366         0.628140
 C        -2.677153         2.122452         0.229583
 C        -1.222842         1.865756        -0.138251
 O        -2.853394        -0.188093        -0.464448
 C        -1.733906        -0.532100         0.468676
 H         1.065736         0.971575         1.064604
 H        -0.690638         0.279333         3.005573
 H        -1.547338         1.828559         2.451560
 H        -2.968536        -0.800998         2.418074
 H        -4.387496         0.680768         0.886065
 H        -3.254498         2.461399        -0.646392
 H        -2.937894         2.947155         0.971417
 H        -1.140849         1.571674        -1.142949
 H        -0.591778         2.741898         0.067680
 H        -1.220975        -1.502921         0.105613
