19
Iteration:  3394
 O         0.560226         0.243010         0.620646
 C        -0.793476         0.704348         0.742756
 C        -1.397613         0.715655         2.258523
 C        -2.507389        -0.133057         1.714947
 C        -3.309755         0.775925         0.643867
 C        -2.648231         2.063938         0.310125
 C        -1.192646         1.862124        -0.065296
 O        -2.809143        -0.221022        -0.500194
 C        -1.726071        -0.558512         0.392544
 H         1.011772         0.947806         1.051494
 H        -0.722703         0.148761         2.924969
 H        -1.624722         1.705441         2.859861
 H        -3.093486        -0.863742         2.374775
 H        -4.395473         0.883608         0.623205
 H        -3.072010         2.414432        -0.629669
 H        -2.794863         2.714574         1.189977
 H        -0.979382         1.528735        -1.057973
 H        -0.661280         2.755030         0.209455
 H        -1.161480        -1.440104        -0.009746
