19
Iteration:   941charge 0 multiplicity 1
 O         0.696922         0.360897         0.620202
 C        -0.781354         0.593177         0.788389
 C        -1.416727         0.731398         2.268650
 C        -2.540780        -0.063032         1.677014
 C        -3.315890         0.770983         0.544940
 C        -2.656881         2.030882         0.372725
 C        -1.218210         1.748959        -0.128951
 O        -2.795698        -0.208664        -0.466142
 C        -1.806086        -0.582434         0.472694
 H         1.020818         1.210950         0.587070
 H        -0.875291         0.277085         3.078670
 H        -1.468819         1.742923         2.609830
 H        -3.159895        -0.578486         2.259887
 H        -4.406880         0.616865         0.550835
 H        -3.246968         2.661318        -0.354766
 H        -2.706645         2.591204         1.428087
 H        -1.152506         1.531302        -1.148955
 H        -0.606481         2.657171        -0.141167
 H        -1.358739        -1.594187         0.157275
