19
Iteration:  4916charge 0 multiplicity 1
 O         0.651296         0.318653         0.829727
 C        -0.671929         0.686766         0.752793
 C        -1.295795         0.604182         2.236485
 C        -2.599511        -0.123750         1.589942
 C        -3.406528         0.756595         0.695471
 C        -2.771453         2.091546         0.188197
 C        -1.144914         1.845584        -0.078410
 O        -2.871341        -0.157101        -0.472831
 C        -1.719279        -0.530158         0.412209
 H         1.195348         0.461643        -0.061440
 H        -0.692934        -0.191037         2.725207
 H        -1.268156         1.393472         2.946196
 H        -3.202688        -0.675037         2.288488
 H        -4.476114         0.603595         0.852293
 H        -3.220175         2.462255        -0.724312
 H        -2.929967         2.787906         0.998546
 H        -0.984531         1.695190        -1.202104
 H        -0.538113         2.795823         0.121256
 H        -1.426749        -1.567098         0.231556
