19
Iteration:   622charge 0 multiplicity 1
 O         0.719422         0.407333         0.823125
 C        -0.719271         0.588260         0.759856
 C        -1.362149         0.707495         2.181718
 C        -2.559793        -0.053379         1.698390
 C        -3.332594         0.748057         0.581231
 C        -2.705392         2.053829         0.267812
 C        -1.220336         1.744085        -0.171648
 O        -2.873308        -0.202380        -0.439069
 C        -1.773713        -0.592452         0.437653
 H         1.179801         0.648284        -0.021955
 H        -0.667849         0.236398         2.991004
 H        -1.606316         1.744204         2.603992
 H        -3.191524        -0.664380         2.250052
 H        -4.481972         0.751821         0.681239
 H        -3.131088         2.542556        -0.569778
 H        -2.705171         2.875759         1.089398
 H        -1.090577         1.645112        -1.280177
 H        -0.560252         2.647039         0.093937
 H        -1.578575        -1.741880         0.403445
