19
Iteration:   101
 O         0.511744         0.216510         0.363205
 C        -0.800646         0.655918         0.817135
 C        -1.343441         0.687218         2.267716
 C        -2.622547         0.075695         1.794074
 C        -3.278258         0.667481         0.591872
 C        -2.706176         1.968190         0.097200
 C        -1.175382         1.960564         0.228998
 O        -2.705261        -0.252806        -0.476062
 C        -1.731349        -0.463652         0.511112
 H         1.111631         0.468956         0.984538
 H        -0.893693        -0.085869         2.829829
 H        -1.352984         1.669571         2.686261
 H        -3.202197        -0.590684         2.424541
 H        -4.399783         0.539729         0.559679
 H        -2.906454         2.077806        -0.989642
 H        -3.117671         2.796720         0.535482
 H        -0.603837         2.030872        -0.762515
 H        -0.747067         2.795922         0.788295
 H        -1.276500        -1.425066         0.481637
