19
Iteration:  2537
 O         0.644206         0.324535         0.830950
 C        -0.747231         0.659468         0.707546
 C        -1.236053         0.707524         2.088755
 C        -2.501039        -0.079791         1.713577
 C        -3.318910         0.708666         0.601168
 C        -2.764642         2.095809         0.289339
 C        -1.241922         1.912953        -0.095325
 O        -2.909450        -0.261739        -0.426272
 C        -1.737497        -0.584299         0.378968
 H         0.996401         0.150084         0.004472
 H        -0.722937         0.054512         2.802122
 H        -1.377803         1.620416         2.609688
 H        -3.201033        -0.504362         2.555573
 H        -4.385989         0.713958         0.803267
 H        -3.167481         2.542074        -0.571099
 H        -2.692748         2.626805         1.240215
 H        -1.131407         1.811067        -1.174123
 H        -0.593483         2.810696         0.213491
 H        -1.290292        -1.558232         0.276070
