19
Iteration:  1220charge 0 multiplicity 1
 O         0.673458         0.357586         0.815943
 C        -0.726154         0.601767         0.697010
 C        -1.254207         0.733265         2.099962
 C        -2.528644        -0.058470         1.698322
 C        -3.321647         0.737928         0.573091
 C        -2.666671         2.095350         0.331634
 C        -1.234842         1.801096        -0.097939
 O        -2.859644        -0.224382        -0.490035
 C        -1.899205        -0.633429         0.440087
 H         1.063305         1.205402         0.731392
 H        -0.768961         0.134720         2.915713
 H        -1.333678         1.648837         2.795193
 H        -3.124738        -0.755595         2.326008
 H        -4.392963         0.648975         0.598246
 H        -3.168213         2.625490        -0.451184
 H        -2.681394         2.545549         1.433337
 H        -1.305700         1.595118        -1.233766
 H        -0.670071         2.728496         0.015436
 H        -1.437407        -1.525683         0.186853
