19
Iteration:  3618
 O         0.645991         0.216141         0.599777
 C        -0.796065         0.652479         0.798402
 C        -1.298698         0.735077         2.202959
 C        -2.528091        -0.036033         1.695399
 C        -3.321713         0.723718         0.580372
 C        -2.770023         2.069393         0.229429
 C        -1.168691         1.896970         0.043170
 O        -2.872008        -0.290925        -0.476898
 C        -1.732586        -0.538741         0.416952
 H         1.203276         0.876717         1.047452
 H        -0.679426        -0.011098         2.825000
 H        -1.334806         1.709325         2.727903
 H        -3.059791        -0.569241         2.428657
 H        -4.398043         0.860109         0.753759
 H        -3.242494         2.594039        -0.678902
 H        -3.042249         2.870561         0.946819
 H        -0.932036         1.936104        -1.050504
 H        -0.669416         2.733545         0.565470
 H        -1.217345        -1.532626         0.298975
