19
Iteration:  2519charge 0 multiplicity 1
 O         0.594766         0.281311         0.789510
 C        -0.740172         0.666316         0.675663
 C        -1.280233         0.734418         2.221315
 C        -2.477822        -0.035076         1.660136
 C        -3.311288         0.670293         0.602255
 C        -2.723208         2.072815         0.348649
 C        -1.225843         1.906504        -0.142527
 O        -2.899438        -0.274904        -0.486735
 C        -1.763655        -0.532617         0.479848
 H         1.143305         0.442765         0.077825
 H        -0.501976         0.141432         2.688035
 H        -1.171018         1.681324         2.829037
 H        -3.023351        -0.847552         2.157875
 H        -4.431338         0.773927         0.590805
 H        -3.411097         2.580291        -0.406425
 H        -2.706089         2.766006         1.241880
 H        -1.260810         1.638216        -1.194274
 H        -0.655051         2.740906         0.085939
 H        -1.222280        -1.497866         0.384324
