19
Iteration:  2367charge 0 multiplicity 1
 O         0.711427         0.409317         0.671279
 C        -0.759508         0.618697         0.765823
 C        -1.229026         0.621753         2.326674
 C        -2.569911         0.009285         1.732875
 C        -3.368000         0.727697         0.463621
 C        -2.715505         2.106971         0.381512
 C        -1.314101         1.818319        -0.152063
 O        -2.813411        -0.270580        -0.453935
 C        -1.791715        -0.566327         0.471887
 H         1.073471         0.576892        -0.170925
 H        -0.867535        -0.279556         2.749650
 H        -1.194611         1.478322         3.008391
 H        -3.147782        -0.482609         2.407499
 H        -4.420397         0.775663         0.153299
 H        -3.203550         2.713030        -0.410122
 H        -2.758711         2.477486         1.361708
 H        -1.147538         1.593540        -1.253105
 H        -0.674097         2.800981        -0.112134
 H        -1.428659        -1.591942         0.349119
