19
Iteration:  2004charge 0 multiplicity 1
 O         0.612355         0.344100         0.558467
 C        -0.748894         0.583730         0.728559
 C        -1.351455         0.732084         2.292109
 C        -2.557623        -0.009612         1.710804
 C        -3.286849         0.682289         0.507855
 C        -2.714951         2.029243         0.241799
 C        -1.161227         1.959468         0.056740
 O        -2.768168        -0.243270        -0.429443
 C        -1.801049        -0.598396         0.533538
 H         0.721955        -0.222958        -0.302082
 H        -0.861005         0.092979         3.104561
 H        -1.578441         1.787423         2.684034
 H        -3.057395        -0.733147         2.377869
 H        -4.385287         0.710626         0.491238
 H        -3.238178         2.572120        -0.685659
 H        -3.064453         2.754882         1.013843
 H        -0.891846         2.085412        -1.039227
 H        -0.636691         2.756229         0.566273
 H        -1.421724        -1.645470         0.308342
