19
Iteration:  1817
 O         0.595801         0.488019         0.730777
 C        -0.785324         0.625056         0.773320
 C        -1.354729         0.586041         2.342723
 C        -2.613461        -0.160851         1.694900
 C        -3.239937         0.777251         0.562219
 C        -2.567467         2.115778         0.348300
 C        -1.189599         1.777666        -0.168542
 O        -2.826339        -0.188162        -0.537753
 C        -1.817815        -0.639621         0.438392
 H         0.853714         0.739591        -0.169769
 H        -0.665081        -0.191646         2.872043
 H        -1.376027         1.631173         2.953282
 H        -3.307055        -0.700184         2.345620
 H        -4.328732         0.893302         0.565826
 H        -3.281488         2.756171        -0.268227
 H        -2.631400         2.728966         1.235374
 H        -1.197033         1.768375        -1.254389
 H        -0.519092         2.576537        -0.018288
 H        -1.414780        -1.658529         0.196223
