19
Iteration:   917
 O         0.625696         0.441393         0.618975
 C        -0.746929         0.617986         0.819475
 C        -1.376365         0.648601         2.207857
 C        -2.601598        -0.126524         1.702418
 C        -3.313642         0.737143         0.571650
 C        -2.629717         2.174148         0.294420
 C        -1.237917         1.696745        -0.117184
 O        -2.783831        -0.178896        -0.473369
 C        -1.779782        -0.588026         0.555380
 H         1.238666         1.215911         0.731761
 H        -0.842125        -0.060738         2.835176
 H        -1.204126         1.546354         2.730436
 H        -3.198198        -0.877642         2.291733
 H        -4.472837         0.678162         0.620629
 H        -3.179708         2.706265        -0.641451
 H        -2.681384         2.866594         1.238417
 H        -1.296216         1.371068        -1.163457
 H        -0.488612         2.415644        -0.279795
 H        -1.490179        -1.663257         0.338062
