19
Iteration:  3859
 O         0.616246         0.238113         0.549358
 C        -0.764440         0.598318         0.759174
 C        -1.320234         0.641927         2.246975
 C        -2.608191        -0.011207         1.715733
 C        -3.340388         0.736519         0.568131
 C        -2.723515         2.089117         0.195278
 C        -1.155828         2.001686         0.050408
 O        -2.788954        -0.286169        -0.422859
 C        -1.763496        -0.600912         0.489202
 H         1.072087         1.070669         0.964618
 H        -0.534762         0.038469         2.826658
 H        -1.488011         1.681604         2.610895
 H        -3.180711        -0.748214         2.185425
 H        -4.389601         0.698269         0.635880
 H        -3.068757         2.604222        -0.777609
 H        -2.940095         2.921948         0.887480
 H        -0.783448         2.062083        -1.009159
 H        -0.739716         2.942548         0.469006
 H        -1.447858        -1.663420         0.320229
