19
Iteration:  4674
 O         0.655556         0.421291         0.746908
 C        -0.730731         0.555389         0.820660
 C        -1.298258         0.537776         2.199613
 C        -2.547684        -0.003106         1.659560
 C        -3.263800         0.798442         0.558616
 C        -2.756617         2.162318         0.178692
 C        -1.195978         1.866122         0.029124
 O        -2.870024        -0.247145        -0.458775
 C        -1.811672        -0.667960         0.444850
 H         1.053546         0.571383        -0.227672
 H        -0.683463        -0.212396         2.752073
 H        -1.497016         1.450015         2.852377
 H        -3.189257        -0.665119         2.280043
 H        -4.358056         0.899295         0.627078
 H        -3.111066         2.685254        -0.723778
 H        -2.791056         2.956979         0.921995
 H        -0.935166         1.885138        -1.084191
 H        -0.635957         2.690619         0.527962
 H        -1.540748        -1.719818         0.216081
