19
Iteration:  4893charge 0 multiplicity 1
 O         0.742394         0.336934         0.748062
 C        -0.722360         0.597588         0.726579
 C        -1.297051         0.638211         2.264534
 C        -2.597360        -0.032381         1.689101
 C        -3.315542         0.741864         0.436075
 C        -2.725684         2.090641         0.327987
 C        -1.269845         1.868497         0.017106
 O        -2.824777        -0.217904        -0.488523
 C        -1.828839        -0.530083         0.433657
 H         0.894016         0.265896        -0.154997
 H        -0.672288         0.059590         2.962194
 H        -1.308623         1.586430         2.757633
 H        -3.270297        -0.617782         2.356686
 H        -4.389770         0.554730         0.486322
 H        -3.102375         2.602531        -0.566046
 H        -2.851291         2.651026         1.235836
 H        -1.066272         1.740261        -1.108366
 H        -0.600151         2.725866         0.214244
 H        -1.607277        -1.646090         0.365557
