19
Iteration:    75charge 0 multiplicity 1
 O         0.669651         0.347258         0.569949
 C        -0.731979         0.618497         0.770203
 C        -1.253186         0.674359         2.255607
 C        -2.498299        -0.009537         1.674081
 C        -3.362650         0.747243         0.500763
 C        -2.776409         2.143699         0.140547
 C        -1.205515         1.934756         0.065223
 O        -2.880732        -0.291159        -0.417587
 C        -1.770888        -0.645033         0.502102
 H         0.938752         0.051258         1.402243
 H        -0.688234        -0.099705         2.937093
 H        -1.517242         1.693714         2.681533
 H        -3.112693        -0.670294         2.293364
 H        -4.427998         0.606612         0.575046
 H        -2.989926         2.506660        -0.805322
 H        -3.073914         3.021911         0.867703
 H        -0.823646         1.867549        -0.901488
 H        -0.571660         2.704375         0.487587
 H        -1.544701        -1.828937         0.551867
