19
Iteration:  1897
 O         0.614240         0.286169         0.508452
 C        -0.823437         0.666778         0.798754
 C        -1.313399         0.639949         2.354684
 C        -2.624006        -0.053547         1.694294
 C        -3.318127         0.680955         0.548798
 C        -2.678249         2.114740         0.225998
 C        -1.174773         1.968426         0.098376
 O        -2.720182        -0.249576        -0.482258
 C        -1.784667        -0.540302         0.502879
 H         0.833619         0.487207        -0.446719
 H        -0.764218        -0.120632         2.990983
 H        -1.428462         1.666555         2.841180
 H        -3.237602        -0.770346         2.244954
 H        -4.413264         0.655965         0.480800
 H        -3.071128         2.247160        -0.797744
 H        -2.994190         2.829957         0.963082
 H        -1.089872         1.776818        -0.963667
 H        -0.531560         2.799439         0.500142
 H        -1.380612        -1.564431         0.522684
