19
Iteration:  4686
 O         0.715008         0.401492         0.699679
 C        -0.709373         0.626523         0.741581
 C        -1.337804         0.609193         2.240725
 C        -2.585723        -0.088543         1.599326
 C        -3.341526         0.787614         0.532596
 C        -2.620646         2.073331         0.195270
 C        -1.141579         1.915648         0.106586
 O        -2.916521        -0.248610        -0.419288
 C        -1.841455        -0.619322         0.441878
 H         0.884211         0.607321        -0.202604
 H        -0.839518        -0.194072         2.893982
 H        -1.336077         1.606177         2.819603
 H        -3.396162        -0.576409         2.221551
 H        -4.434145         0.800742         0.727420
 H        -3.130329         2.323595        -0.762200
 H        -3.124095         2.656191         0.998361
 H        -0.853376         1.867063        -0.950159
 H        -0.532851         2.759267         0.546457
 H        -1.448907        -1.631894         0.367495
