19
Iteration:  4624
 O         0.697531         0.279971         0.659298
 C        -0.758398         0.588538         0.818654
 C        -1.413198         0.718514         2.289316
 C        -2.584583        -0.123844         1.632726
 C        -3.340102         0.706108         0.550399
 C        -2.685870         2.160847         0.321196
 C        -1.189603         1.906709        -0.032721
 O        -2.804144        -0.253553        -0.520569
 C        -1.724923        -0.518317         0.456031
 H         0.882463         0.227871        -0.230851
 H        -0.933327         0.158922         3.119043
 H        -1.651204         1.736986         2.536692
 H        -3.257005        -0.674610         2.342354
 H        -4.438808         0.720375         0.757385
 H        -3.132868         2.897396        -0.360073
 H        -2.805298         2.680080         1.334668
 H        -1.324355         1.743056        -1.167584
 H        -0.371652         2.620753         0.207909
 H        -1.272660        -1.483517         0.252259
