19
Iteration:   599
 O         0.546232         0.412499         0.592390
 C        -0.819051         0.707500         0.859332
 C        -1.349314         0.695125         2.266245
 C        -2.617313        -0.034969         1.709169
 C        -3.261272         0.724366         0.490064
 C        -2.625092         2.094324         0.231112
 C        -1.120996         1.836244         0.004209
 O        -2.793473        -0.332467        -0.460685
 C        -1.782582        -0.590156         0.529091
 H         0.703544         0.063492        -0.331853
 H        -0.611008         0.142013         2.947665
 H        -1.507422         1.696323         2.764212
 H        -3.310924        -0.609328         2.239483
 H        -4.422189         0.694109         0.434369
 H        -3.092858         2.648816        -0.551816
 H        -2.784435         2.690901         1.214549
 H        -0.913226         1.423616        -1.055456
 H        -0.383350         2.690494         0.095206
 H        -1.193160        -1.591214         0.507970
