19
Iteration:  2160charge 0 multiplicity 1
 O         0.631535         0.292204         0.329013
 C        -0.762866         0.592545         0.809087
 C        -1.358775         0.674151         2.281087
 C        -2.583783        -0.044350         1.747294
 C        -3.336846         0.675374         0.548041
 C        -2.759934         2.068756         0.097948
 C        -1.170494         1.906693         0.175511
 O        -2.783993        -0.193574        -0.399439
 C        -1.735857        -0.559273         0.620947
 H         1.151613         1.013110         0.520343
 H        -0.958145         0.084696         3.073652
 H        -1.353247         1.714086         2.696103
 H        -3.180479        -0.596230         2.379212
 H        -4.401159         0.659176         0.521178
 H        -2.944011         2.161027        -1.032212
 H        -3.072205         2.936473         0.747910
 H        -0.811523         1.837872        -0.816178
 H        -0.523898         2.686080         0.651231
 H        -1.342425        -1.529793         0.459281
