19
Iteration:  1222charge 0 multiplicity 1
 O         0.671031         0.369328         0.812332
 C        -0.718058         0.591808         0.689975
 C        -1.250726         0.724393         2.107844
 C        -2.541589        -0.056775         1.702900
 C        -3.329481         0.737338         0.571343
 C        -2.650917         2.101010         0.324202
 C        -1.239524         1.799906        -0.092979
 O        -2.861725        -0.215644        -0.489728
 C        -1.896524        -0.647276         0.453955
 H         1.109373         1.306311         0.739970
 H        -0.800243         0.093317         2.867657
 H        -1.354915         1.637942         2.727863
 H        -3.080447        -0.847602         2.393760
 H        -4.404213         0.694838         0.541367
 H        -3.185927         2.653303        -0.497631
 H        -2.632349         2.545267         1.436032
 H        -1.301552         1.574130        -1.191340
 H        -0.699871         2.766197        -0.007110
 H        -1.452352        -1.574514         0.179494
