19
Iteration:   365charge 0 multiplicity 1
 O         0.668409         0.450244         0.541365
 C        -0.783826         0.662003         0.797628
 C        -1.347058         0.614482         2.381862
 C        -2.594266        -0.037505         1.724602
 C        -3.265975         0.746777         0.524974
 C        -2.666131         2.055778         0.211969
 C        -1.209086         1.782095        -0.131173
 O        -2.780553        -0.202929        -0.477228
 C        -1.862283        -0.574045         0.537483
 H         1.058019         0.047028         1.435026
 H        -0.772959        -0.099905         2.900974
 H        -1.354881         1.432171         3.054346
 H        -3.391191        -0.633458         2.285749
 H        -4.388048         0.698561         0.514686
 H        -3.281675         2.609474        -0.586802
 H        -2.678703         2.698346         1.066281
 H        -1.048497         1.419219        -1.180807
 H        -0.656284         2.617769         0.025317
 H        -1.322032        -1.416482         0.321128
