19
Iteration:  4327charge 0 multiplicity 1
 O         0.604658         0.331251         0.616201
 C        -0.716347         0.556900         0.737393
 C        -1.185662         0.641007         2.174138
 C        -2.514827         0.061507         1.646146
 C        -3.341011         0.733677         0.486226
 C        -2.740842         2.104102         0.255274
 C        -1.215875         1.913663         0.061636
 O        -2.853871        -0.311473        -0.468980
 C        -1.838535        -0.617321         0.527905
 H         0.963384         0.897403         1.235581
 H        -0.841012        -0.157691         2.893537
 H        -0.971334         1.524376         2.783333
 H        -3.019174        -0.507236         2.397427
 H        -4.456041         0.792485         0.693032
 H        -3.213621         2.621362        -0.559402
 H        -3.091961         2.861641         0.980391
 H        -0.921681         2.070544        -1.013595
 H        -0.762206         2.774018         0.569343
 H        -1.438462        -1.607729         0.427613
