19
Iteration:  1766
 O         0.656322         0.219517         0.624836
 C        -0.717983         0.668478         0.789532
 C        -1.309946         0.682650         2.214322
 C        -2.537117        -0.045447         1.635328
 C        -3.334344         0.654928         0.528550
 C        -2.707557         2.061664         0.232115
 C        -1.160116         1.959343         0.144540
 O        -2.881453        -0.219398        -0.525351
 C        -1.833861        -0.549590         0.495585
 H         1.145206         0.944352         0.337073
 H        -0.696378         0.126345         2.935736
 H        -1.453657         1.630871         2.613683
 H        -3.098663        -0.728430         2.327951
 H        -4.430408         0.592448         0.741817
 H        -3.236130         2.480901        -0.703689
 H        -2.967769         2.719699         1.097962
 H        -0.855538         1.953433        -0.999803
 H        -0.682719         2.954698         0.630756
 H        -1.288391        -1.551745         0.381171
