19
Iteration:  2182charge 0 multiplicity 1
 O         0.569058         0.231449         0.546437
 C        -0.723950         0.657737         0.755600
 C        -1.201885         0.675718         2.268025
 C        -2.505787         0.041312         1.718940
 C        -3.363947         0.734892         0.610130
 C        -2.762214         2.036229         0.140745
 C        -1.205118         1.992866         0.112277
 O        -2.843372        -0.365329        -0.487282
 C        -1.789166        -0.548496         0.493797
 H         1.300483         0.975534         0.384283
 H        -0.732531        -0.031217         2.909644
 H        -1.307488         1.625874         2.855587
 H        -3.150471        -0.544546         2.276308
 H        -4.423988         0.788185         0.636934
 H        -3.051413         2.195733        -0.968726
 H        -3.078688         2.836984         0.888321
 H        -0.800420         2.283433        -0.819506
 H        -0.750233         2.742783         0.825717
 H        -1.371192        -1.508684         0.304760
