19
Iteration:  1690charge 0 multiplicity 1
 O         0.633756         0.343499         0.591131
 C        -0.729865         0.584547         0.767618
 C        -1.287994         0.619610         2.213409
 C        -2.569167         0.020023         1.670874
 C        -3.313003         0.755645         0.507909
 C        -2.767603         2.129518         0.279803
 C        -1.219057         1.808611        -0.017408
 O        -2.770118        -0.189076        -0.452537
 C        -1.799217        -0.593073         0.484332
 H         1.174673         0.887404         1.281281
 H        -0.647119        -0.076014         2.784405
 H        -1.300660         1.566281         2.809550
 H        -3.241030        -0.681006         2.255455
 H        -4.422621         0.621579         0.608284
 H        -3.251754         2.683728        -0.506758
 H        -2.809919         2.497127         1.302456
 H        -1.129036         1.576476        -1.062356
 H        -0.694134         2.589485         0.418399
 H        -1.639264        -1.715066         0.441171
