19
Iteration:  2206
 O         0.622181         0.260524         0.690746
 C        -0.754205         0.668735         0.779110
 C        -1.256811         0.635586         2.121498
 C        -2.537304        -0.068023         1.750055
 C        -3.324283         0.745453         0.573246
 C        -2.742006         2.115122         0.203457
 C        -1.213001         1.969216        -0.007544
 O        -2.863135        -0.329641        -0.388045
 C        -1.759682        -0.528369         0.444296
 H         1.149860         0.900502         0.239104
 H        -0.538387         0.020788         2.665494
 H        -1.350138         1.606065         2.707266
 H        -3.179353        -0.807503         2.263390
 H        -4.401190         0.845808         0.518424
 H        -3.167397         2.445374        -0.754267
 H        -2.988194         2.661731         1.144807
 H        -0.968215         1.861584        -1.014662
 H        -0.694440         2.918894         0.248187
 H        -1.338297        -1.491131         0.214659
