19
Iteration:  4907
 O         0.782403         0.298391         0.796425
 C        -0.699466         0.688315         0.829629
 C        -1.305952         0.596602         2.158242
 C        -2.600768        -0.070465         1.686396
 C        -3.416204         0.718927         0.615434
 C        -2.746556         2.087806         0.233806
 C        -1.186160         1.902595        -0.065197
 O        -2.851162        -0.169783        -0.521327
 C        -1.813723        -0.573667         0.474650
 H         1.209387         0.294311        -0.181954
 H        -0.829399        -0.289654         2.646773
 H        -1.381107         1.493133         2.782888
 H        -3.080259        -0.756079         2.339347
 H        -4.483880         0.873479         0.547201
 H        -3.314350         2.518214        -0.575562
 H        -2.983289         2.826967         1.028206
 H        -1.203440         1.585624        -1.146017
 H        -0.687716         2.948485         0.131333
 H        -1.291789        -1.435393         0.278036
