19
Iteration:  2316charge 0 multiplicity 1
 O         0.633480         0.279462         0.582109
 C        -0.752915         0.626180         0.776183
 C        -1.337656         0.719080         2.229132
 C        -2.458056        -0.103374         1.699218
 C        -3.266859         0.716717         0.676065
 C        -2.758846         1.979853         0.092675
 C        -1.159129         1.966521         0.117200
 O        -2.881388        -0.189349        -0.419170
 C        -1.775814        -0.577052         0.460990
 H         0.870727         0.564848        -0.419143
 H        -0.739319         0.185654         3.014447
 H        -1.686922         1.736365         2.459079
 H        -3.227947        -0.736375         2.292729
 H        -4.349360         0.658008         0.819550
 H        -3.157549         2.218316        -0.951839
 H        -3.127554         2.887288         0.757512
 H        -0.584579         2.113954        -0.778121
 H        -1.014246         2.839686         0.784678
 H        -1.278256        -1.533219         0.239583
