19
Iteration:  2180charge 0 multiplicity 1
 O         0.579020         0.234223         0.522981
 C        -0.715993         0.648319         0.774474
 C        -1.214990         0.684321         2.269988
 C        -2.523828         0.051733         1.721160
 C        -3.345855         0.749410         0.619748
 C        -2.752622         2.023584         0.147339
 C        -1.218269         1.981586         0.127431
 O        -2.831291        -0.364594        -0.486889
 C        -1.794899        -0.545016         0.479928
 H         1.256113         0.954288         0.399581
 H        -0.721126        -0.062466         2.896491
 H        -1.357561         1.613223         2.794356
 H        -3.181859        -0.553811         2.269636
 H        -4.434025         0.805652         0.656253
 H        -3.066610         2.147576        -0.978158
 H        -3.108672         2.837786         0.861328
 H        -0.768054         2.291375        -0.863689
 H        -0.805747         2.789315         0.801424
 H        -1.356830        -1.558424         0.338938
