19
Iteration:  4173
 O         0.704687         0.311136         0.688530
 C        -0.758185         0.656358         0.789544
 C        -1.278007         0.605118         2.288584
 C        -2.490640        -0.017112         1.652717
 C        -3.325710         0.715360         0.486229
 C        -2.803219         2.089773         0.205365
 C        -1.244054         1.921349         0.057940
 O        -2.827471        -0.187218        -0.438759
 C        -1.825707        -0.551172         0.447129
 H         0.785733        -0.267716        -0.120457
 H        -0.652699        -0.164491         2.838426
 H        -1.223641         1.636578         2.689081
 H        -3.030148        -0.711167         2.274852
 H        -4.460400         0.650873         0.622981
 H        -3.054942         2.563144        -0.713044
 H        -3.122658         2.623553         1.122992
 H        -1.030069         1.737320        -1.006952
 H        -0.637770         2.705299         0.358580
 H        -1.277729        -1.468740         0.250783
