19
Iteration:  1743
 O         0.492521         0.207022         0.500552
 C        -0.830192         0.634471         0.777714
 C        -1.356848         0.643168         2.253571
 C        -2.551571        -0.078889         1.724491
 C        -3.276731         0.738929         0.550607
 C        -2.650287         2.112346         0.153189
 C        -1.148854         2.023171         0.193284
 O        -2.852793        -0.294615        -0.454231
 C        -1.639080        -0.563834         0.463443
 H         1.155185         1.068006         0.600690
 H        -0.678537         0.012934         2.905766
 H        -1.484577         1.584175         2.739641
 H        -3.071604        -0.752885         2.466994
 H        -4.381498         0.925771         0.518781
 H        -3.218780         2.171299        -0.894272
 H        -3.078030         2.957187         0.752092
 H        -0.619563         2.237567        -0.889532
 H        -0.754886         2.917478         0.932363
 H        -1.042991        -1.528219         0.164483
