19
Iteration:  2672charge 0 multiplicity 1
 O         0.591865         0.371063         0.668905
 C        -0.772706         0.653626         0.767015
 C        -1.277354         0.623212         2.246229
 C        -2.578134        -0.023738         1.691990
 C        -3.295753         0.695810         0.570658
 C        -2.666863         2.112974         0.280804
 C        -1.263928         1.780596        -0.119233
 O        -2.854731        -0.188114        -0.453830
 C        -1.721269        -0.599125         0.503537
 H         1.040275         1.222803         0.607222
 H        -0.700951        -0.175747         2.680545
 H        -1.479518         1.541845         2.813473
 H        -3.138508        -0.963997         2.185197
 H        -4.406254         0.799115         0.761342
 H        -3.081621         2.580869        -0.639383
 H        -2.660549         2.893149         1.111171
 H        -1.091025         1.463288        -1.175384
 H        -0.443050         2.741934        -0.038735
 H        -1.301188        -1.634590         0.401758
