19
Iteration:  1352
 O         0.633738         0.427706         0.620083
 C        -0.798072         0.655892         0.817386
 C        -1.351258         0.554173         2.289168
 C        -2.601576        -0.067988         1.726296
 C        -3.239641         0.755317         0.613467
 C        -2.653986         2.086678         0.232938
 C        -1.177945         1.833878        -0.122506
 O        -2.818246        -0.168016        -0.484718
 C        -1.809750        -0.637414         0.440300
 H         1.113716         1.051460         1.099557
 H        -0.722279        -0.260345         2.767916
 H        -1.267331         1.587689         2.963987
 H        -3.278846        -0.779627         2.227916
 H        -4.332938         0.740975         0.622126
 H        -3.307117         2.580748        -0.385818
 H        -2.898013         2.780193         1.040723
 H        -1.175044         1.312541        -1.134731
 H        -0.440652         2.640459        -0.260682
 H        -1.527755        -1.655014         0.363595
