19
Iteration:  2513charge 0 multiplicity 1
 O         0.601139         0.279588         0.753715
 C        -0.747180         0.682527         0.721466
 C        -1.236217         0.770270         2.232710
 C        -2.514834        -0.095800         1.685007
 C        -3.349129         0.700087         0.573233
 C        -2.727342         2.066242         0.341884
 C        -1.242335         1.877389        -0.122302
 O        -2.853797        -0.263992        -0.447278
 C        -1.779933        -0.525598         0.420683
 H         1.182398         0.566997        -0.055335
 H        -0.591430         0.065157         2.820729
 H        -1.297878         1.708543         2.805997
 H        -3.127922        -0.845226         2.205144
 H        -4.433639         0.756689         0.573778
 H        -3.210348         2.520495        -0.517304
 H        -2.576133         2.621403         1.252813
 H        -1.239248         1.614694        -1.223611
 H        -0.568391         2.873746        -0.000627
 H        -1.312035        -1.519081         0.447812
