19
Iteration:   344
 O         0.609610         0.402338         0.684357
 C        -0.763204         0.611538         0.745394
 C        -1.378159         0.709511         2.135215
 C        -2.565530        -0.065427         1.633737
 C        -3.355288         0.727912         0.567862
 C        -2.594670         2.172223         0.366698
 C        -1.216548         1.810478        -0.132371
 O        -2.825571        -0.291478        -0.449808
 C        -1.707966        -0.602180         0.498007
 H         1.056223         0.405058         1.498640
 H        -0.944711         0.150113         2.906161
 H        -1.387093         1.671793         2.583224
 H        -3.124751        -0.750779         2.349513
 H        -4.512964         0.721412         0.614072
 H        -3.069449         2.956542        -0.383434
 H        -2.616997         2.703455         1.275928
 H        -1.492383         1.391738        -1.122455
 H        -0.542692         2.495590        -0.175023
 H        -1.308262        -1.570251         0.358343
