19
Iteration:  2281
 O         0.634195         0.337981         0.703663
 C        -0.750367         0.688942         0.767575
 C        -1.190161         0.613581         2.204288
 C        -2.513329        -0.008994         1.698984
 C        -3.304257         0.706826         0.503013
 C        -2.764244         2.048355         0.203344
 C        -1.222722         1.965966        -0.001091
 O        -2.878346        -0.306927        -0.426667
 C        -1.820677        -0.546083         0.468151
 H         0.862334         0.054672        -0.288427
 H        -0.636085        -0.121379         2.750017
 H        -1.127490         1.495050         2.868151
 H        -3.171170        -0.520381         2.366019
 H        -4.376816         0.727412         0.604849
 H        -3.419390         2.645514        -0.582815
 H        -2.893541         2.540782         1.266732
 H        -0.818338         1.903306        -1.019608
 H        -0.828916         2.956896         0.475015
 H        -1.272161        -1.486094         0.437072
