19
Iteration:   774
 O         0.680280         0.434047         0.823267
 C        -0.752188         0.553051         0.739581
 C        -1.380668         0.740208         2.162289
 C        -2.571277        -0.147515         1.733378
 C        -3.273043         0.733867         0.649710
 C        -2.637416         2.070796         0.251999
 C        -1.165982         1.789383        -0.091109
 O        -2.963418        -0.238121        -0.442689
 C        -1.766197        -0.564251         0.369289
 H         1.011614         0.946882         0.007591
 H        -0.564892         0.402094         2.845790
 H        -1.541336         1.772084         2.444639
 H        -3.141454        -0.839151         2.345404
 H        -4.432139         0.990436         0.755880
 H        -3.207507         2.475231        -0.721009
 H        -2.657725         2.782992         1.102753
 H        -1.175976         1.524323        -1.240990
 H        -0.244600         2.577083        -0.051618
 H        -1.334947        -1.561225         0.091456
