19
Iteration:  2285
 O         0.627968         0.315979         0.691015
 C        -0.750382         0.688689         0.747695
 C        -1.177000         0.629172         2.219524
 C        -2.501032        -0.011787         1.694490
 C        -3.357453         0.704790         0.530457
 C        -2.752149         2.035956         0.200834
 C        -1.200586         2.004251         0.024278
 O        -2.882202        -0.316656        -0.424250
 C        -1.803536        -0.541068         0.463989
 H         0.860212         0.090928        -0.153037
 H        -0.550786        -0.157802         2.770242
 H        -1.169467         1.549714         2.839217
 H        -3.298440        -0.581344         2.360574
 H        -4.479458         0.690455         0.505787
 H        -3.190061         2.598441        -0.588131
 H        -3.001952         2.677599         1.095883
 H        -0.850032         1.862895        -0.985805
 H        -0.946162         2.921565         0.448067
 H        -1.176851        -1.446422         0.305692
