19
Iteration:   794
 O         0.696190         0.416449         0.765521
 C        -0.682666         0.633642         0.742556
 C        -1.313983         0.702879         2.187285
 C        -2.533020        -0.010078         1.644645
 C        -3.377579         0.721589         0.552720
 C        -2.699958         2.069082         0.343618
 C        -1.196680         1.715732        -0.151571
 O        -2.851007        -0.198111        -0.461020
 C        -1.876344        -0.680437         0.480982
 H         1.243714         1.254808         0.438024
 H        -0.775748         0.024786         2.856974
 H        -1.339244         1.687060         2.609135
 H        -3.204275        -0.556273         2.432349
 H        -4.494019         0.765242         0.672677
 H        -3.113697         2.746105        -0.590166
 H        -2.668068         2.595531         1.312824
 H        -1.212410         1.484546        -1.257992
 H        -0.648399         2.664399         0.024986
 H        -1.523403        -1.675594         0.466283
