19
Iteration:  4933charge 0 multiplicity 1
 O         0.585529         0.367082         0.816700
 C        -0.844019         0.607484         0.795633
 C        -1.265899         0.582567         2.236854
 C        -2.458243        -0.109293         1.698202
 C        -3.248484         0.738635         0.579379
 C        -2.633716         2.086211         0.193757
 C        -1.205607         1.840234        -0.026022
 O        -2.912060        -0.163663        -0.472450
 C        -1.812898        -0.529675         0.375315
 H         1.052994         0.679088        -0.066815
 H        -0.619842        -0.011930         2.878299
 H        -1.516579         1.616171         2.665928
 H        -3.004758        -0.950453         2.257874
 H        -4.356195         0.917742         0.543937
 H        -3.228885         2.393666        -0.721183
 H        -2.924832         2.928398         0.915332
 H        -1.029224         1.696044        -1.068734
 H        -0.650036         2.678006         0.283943
 H        -1.251154        -1.478964         0.015392
