19
Iteration:  4762charge 0 multiplicity 1
 O         0.644575         0.397337         0.720114
 C        -0.723054         0.622320         0.822331
 C        -1.271862         0.625643         2.253960
 C        -2.647291         0.023403         1.660331
 C        -3.339042         0.706645         0.487533
 C        -2.663737         2.069187         0.333658
 C        -1.233785         1.748140         0.000367
 O        -2.814892        -0.148498        -0.545987
 C        -1.759029        -0.530406         0.459179
 H         0.811773         0.027695        -0.216791
 H        -0.859618        -0.138650         2.949650
 H        -1.396987         1.580035         2.800788
 H        -3.066733        -0.834902         2.226227
 H        -4.448429         0.651267         0.498504
 H        -3.233928         2.690872        -0.363674
 H        -2.649479         2.607655         1.305039
 H        -1.087530         1.465140        -1.146120
 H        -0.575461         2.675158         0.193118
 H        -1.488729        -1.558611         0.200544
