19
Iteration:  4283
 O         0.521779         0.242939         0.486152
 C        -0.823731         0.685966         0.801624
 C        -1.365256         0.647551         2.365688
 C        -2.482889        -0.064049         1.701500
 C        -3.262251         0.754015         0.636815
 C        -2.709583         2.134651         0.212998
 C        -1.196762         1.831480         0.030812
 O        -2.765317        -0.215225        -0.489884
 C        -1.694573        -0.541914         0.457846
 H         1.155331         0.858031         0.654680
 H        -0.617926         0.224972         3.083210
 H        -1.772067         1.613723         2.686295
 H        -3.168100        -0.679350         2.233858
 H        -4.332895         0.595875         0.397753
 H        -3.253991         2.327843        -0.655987
 H        -3.144152         2.890482         0.837304
 H        -0.981009         1.621841        -1.036150
 H        -0.559551         2.593676         0.366002
 H        -1.382918        -1.549332         0.440388
