19
Iteration:  3943
 O         0.618348         0.360131         0.738762
 C        -0.760007         0.613691         0.756774
 C        -1.297806         0.662870         2.259335
 C        -2.540157        -0.109710         1.690838
 C        -3.310594         0.771812         0.572271
 C        -2.670529         2.070354         0.224595
 C        -1.164509         1.837293        -0.056467
 O        -2.954623        -0.210511        -0.477966
 C        -1.716650        -0.568525         0.445670
 H         1.033889         0.892003         0.142836
 H        -0.553027         0.199953         2.888865
 H        -1.310486         1.635693         2.693053
 H        -3.078862        -0.959897         2.126244
 H        -4.448227         0.905965         0.737208
 H        -2.993988         2.566189        -0.674431
 H        -2.898512         2.671089         1.103476
 H        -1.035403         1.616456        -1.145625
 H        -0.641899         2.674798         0.351888
 H        -1.549965        -1.614827         0.329731
