19
Iteration:  1996
 O         0.643407         0.309721         0.578877
 C        -0.739395         0.699873         0.820542
 C        -1.384760         0.787362         2.244758
 C        -2.560706        -0.113893         1.757254
 C        -3.294173         0.680278         0.597445
 C        -2.666572         2.051383         0.222247
 C        -1.174046         1.954663         0.031255
 O        -2.804039        -0.237034        -0.487469
 C        -1.785773        -0.636793         0.453292
 H         0.556992        -0.223529        -0.255398
 H        -0.730030         0.223481         2.931245
 H        -1.518164         1.825752         2.778862
 H        -3.295387        -0.655314         2.299100
 H        -4.375052         0.638335         0.661010
 H        -3.160008         2.441068        -0.685312
 H        -2.892716         2.716667         1.080551
 H        -0.956068         1.816498        -0.997512
 H        -0.726807         2.926982         0.383300
 H        -1.437416        -1.630213         0.260460
