19
Iteration:  2205
 O         0.621104         0.257736         0.688461
 C        -0.760189         0.664672         0.782645
 C        -1.249667         0.637226         2.118799
 C        -2.536643        -0.071336         1.756546
 C        -3.327140         0.737165         0.560323
 C        -2.744648         2.120357         0.197392
 C        -1.207543         1.973540         0.001220
 O        -2.868960        -0.326728        -0.382827
 C        -1.755791        -0.527269         0.443773
 H         1.117739         0.880058         0.270462
 H        -0.530655         0.016057         2.620272
 H        -1.337567         1.607688         2.697073
 H        -3.139258        -0.789074         2.257718
 H        -4.392977         0.821069         0.523628
 H        -3.186202         2.457563        -0.807144
 H        -3.004904         2.663396         1.165951
 H        -0.934921         1.878640        -1.003768
 H        -0.696373         2.949417         0.255585
 H        -1.328634        -1.484595         0.246827
