19
Iteration:  4614
 O         0.628180         0.296445         0.682088
 C        -0.736243         0.607445         0.706347
 C        -1.373474         0.761987         2.265801
 C        -2.590083        -0.105809         1.681096
 C        -3.300856         0.761523         0.513091
 C        -2.696329         2.155356         0.379640
 C        -1.149917         1.929767         0.070654
 O        -2.811680        -0.290936        -0.496193
 C        -1.777848        -0.650145         0.430472
 H         0.736769         0.228368        -0.253065
 H        -0.648911         0.465558         2.990843
 H        -1.694947         1.745540         2.487222
 H        -3.201625        -0.918424         2.034082
 H        -4.389927         0.843080         0.387377
 H        -3.120549         2.700987        -0.458425
 H        -2.928086         2.731791         1.276784
 H        -0.990158         1.691693        -1.059132
 H        -0.499223         2.783093         0.297632
 H        -1.204707        -1.569479         0.202769
