19
Iteration:  4232
 O         0.767009         0.334792         0.697420
 C        -0.757145         0.606551         0.793065
 C        -1.308770         0.676950         2.196908
 C        -2.548061         0.003761         1.635970
 C        -3.380423         0.763089         0.546948
 C        -2.691705         2.133589         0.363335
 C        -1.235415         1.812377         0.010830
 O        -2.886631        -0.304400        -0.539451
 C        -1.796257        -0.577532         0.476340
 H         1.151602         1.047137         0.050862
 H        -0.894338        -0.035608         2.945865
 H        -1.135452         1.664272         2.643187
 H        -3.173822        -0.710870         2.236850
 H        -4.466992         0.664166         0.600097
 H        -3.174648         2.765267        -0.480820
 H        -2.996038         2.685584         1.258959
 H        -1.204709         1.572763        -1.075857
 H        -0.615941         2.754189         0.206235
 H        -1.336483        -1.607095         0.246447
