19
Iteration:  1585charge 0 multiplicity 1
 O         0.595835         0.324061         0.386148
 C        -0.783165         0.637906         0.853971
 C        -1.299811         0.647702         2.342956
 C        -2.598721         0.007848         1.701292
 C        -3.264656         0.761304         0.409974
 C        -2.690043         2.091301         0.186216
 C        -1.100664         1.876104         0.261975
 O        -2.805695        -0.336287        -0.482500
 C        -1.837538        -0.570720         0.547018
 H         0.830574         1.191092         0.204667
 H        -0.901461        -0.083142         2.994869
 H        -1.375779         1.489135         2.798079
 H        -3.269424        -0.612051         2.340157
 H        -4.340277         0.724137         0.406565
 H        -3.143649         2.504847        -0.719254
 H        -3.286274         2.719661         0.908073
 H        -0.749830         1.842032        -0.796921
 H        -0.514657         2.827317         0.635225
 H        -1.369771        -1.515912         0.560723
