19
Iteration:  3202charge 0 multiplicity 1
 O         0.599879         0.207077         0.635635
 C        -0.775873         0.603430         0.786718
 C        -1.288870         0.656107         2.171784
 C        -2.549677        -0.090651         1.668591
 C        -3.309493         0.735378         0.624969
 C        -2.836403         2.146922         0.258238
 C        -1.189945         1.857938        -0.002220
 O        -2.762080        -0.175713        -0.488016
 C        -1.709255        -0.499840         0.444684
 H         1.182591         0.858888         1.193382
 H        -0.817050         0.148595         3.002157
 H        -1.468320         1.637346         2.547108
 H        -3.134234        -0.716239         2.318302
 H        -4.437723         0.769118         0.668427
 H        -3.263704         2.673128        -0.620093
 H        -3.076871         2.647035         1.207603
 H        -1.117139         1.610469        -1.086484
 H        -0.498115         2.714803         0.140643
 H        -1.234601        -1.445543         0.266710
