19
Iteration:  4812
 O         0.630051         0.328368         0.806028
 C        -0.803948         0.598869         0.682863
 C        -1.231395         0.589056         2.199527
 C        -2.569141        -0.057423         1.677540
 C        -3.323842         0.770477         0.544812
 C        -2.734089         2.031635         0.223423
 C        -1.120777         1.936178         0.053548
 O        -2.868599        -0.165378        -0.496636
 C        -1.805089        -0.580972         0.457866
 H         1.065953         0.669933         0.068455
 H        -0.702349        -0.175071         2.737993
 H        -1.186837         1.584927         2.675934
 H        -3.088029        -0.665461         2.403621
 H        -4.400034         0.673371         0.611381
 H        -3.242394         2.353399        -0.703223
 H        -3.020874         2.806028         0.973560
 H        -1.021756         1.844241        -0.978713
 H        -0.579015         2.741415         0.435544
 H        -1.326787        -1.577151         0.194071
