19
Iteration:  2748charge 0 multiplicity 1
 O         0.549594         0.172439         0.533780
 C        -0.739647         0.720767         0.795528
 C        -1.330413         0.722075         2.278302
 C        -2.544307        -0.146173         1.689453
 C        -3.264518         0.678588         0.573904
 C        -2.748047         2.059360         0.188143
 C        -1.196039         2.027522         0.065821
 O        -2.841192        -0.221043        -0.462156
 C        -1.719192        -0.560663         0.481497
 H         1.267668         0.903487         0.624146
 H        -0.800971         0.075980         2.938170
 H        -1.384498         1.718913         2.672886
 H        -3.266976        -0.724867         2.449295
 H        -4.349400         0.727407         0.808608
 H        -3.108242         2.092739        -0.792524
 H        -2.914995         2.799979         0.935285
 H        -0.781043         2.054736        -0.939539
 H        -0.649092         2.964252         0.368956
 H        -1.222034        -1.544242         0.350254
