19
Iteration:   360
 O         0.655670         0.437193         0.568164
 C        -0.769489         0.667547         0.801300
 C        -1.368612         0.622158         2.321627
 C        -2.605895        -0.055866         1.697496
 C        -3.250905         0.767836         0.511952
 C        -2.674362         2.090997         0.258813
 C        -1.224757         1.745552        -0.152377
 O        -2.792317        -0.224248        -0.433816
 C        -1.824439        -0.560504         0.517112
 H         0.962480         0.202963         1.388096
 H        -0.665175        -0.161221         2.831044
 H        -1.511201         1.560747         2.985488
 H        -3.318004        -0.653153         2.209424
 H        -4.316057         0.798551         0.444534
 H        -3.285610         2.577757        -0.435543
 H        -2.639466         2.703880         1.228510
 H        -1.063195         1.381585        -1.166843
 H        -0.491631         2.760735        -0.070474
 H        -1.240566        -1.588833         0.396549
