19
Iteration:  1054charge 0 multiplicity 1
 O         0.636843         0.250099         0.630437
 C        -0.774463         0.645435         0.794091
 C        -1.297859         0.702789         2.191909
 C        -2.571795         0.027040         1.693926
 C        -3.368984         0.680972         0.520740
 C        -2.726424         2.100094         0.321849
 C        -1.249148         1.856488        -0.051129
 O        -2.800548        -0.290406        -0.459286
 C        -1.725596        -0.533172         0.483174
 H         1.191092         1.121700         0.748299
 H        -0.614696         0.148719         2.857985
 H        -1.217855         1.657681         2.768551
 H        -3.124358        -0.663650         2.279245
 H        -4.420734         0.671353         0.349667
 H        -3.238753         2.628476        -0.462673
 H        -2.707071         2.814321         1.291034
 H        -1.153010         1.539761        -1.120477
 H        -0.638100         2.778267        -0.005605
 H        -1.265364        -1.499814         0.536819
