19
Iteration:   380
 O         0.613872         0.471492         0.537090
 C        -0.715895         0.569010         0.862615
 C        -1.273114         0.595037         2.316279
 C        -2.611342         0.020674         1.777561
 C        -3.393657         0.716746         0.554849
 C        -2.719944         2.065167         0.096708
 C        -1.171182         1.837114         0.013365
 O        -2.779782        -0.194144        -0.516882
 C        -1.767489        -0.565067         0.511591
 H         0.989050        -0.309322         0.952842
 H        -0.862743        -0.262628         2.924191
 H        -1.296738         1.596123         2.827012
 H        -3.143237        -0.561919         2.480812
 H        -4.511448         0.700196         0.625900
 H        -3.057919         2.312053        -0.921551
 H        -3.010671         2.895207         0.789630
 H        -0.895379         1.630011        -0.983803
 H        -0.545667         2.740446         0.275278
 H        -1.553692        -1.714246         0.542575
