19
Iteration:  3567charge 0 multiplicity 1
 O         0.552883         0.318108         0.456035
 C        -0.756996         0.636172         0.847959
 C        -1.340620         0.597881         2.376580
 C        -2.548383         0.012209         1.657643
 C        -3.302505         0.743456         0.555651
 C        -2.682173         2.100159         0.178535
 C        -1.188838         1.850278         0.037866
 O        -2.763482        -0.245477        -0.427182
 C        -1.773308        -0.575016         0.498912
 H         1.106571         1.060903         0.487920
 H        -0.904068        -0.090052         3.075343
 H        -1.482959         1.589554         2.767151
 H        -3.173446        -0.729549         2.187015
 H        -4.439341         0.678717         0.644754
 H        -2.944126         2.550977        -0.744307
 H        -2.912913         2.936019         0.859315
 H        -1.147736         1.608891        -1.015792
 H        -0.677710         2.749277         0.437786
 H        -1.315934        -1.586162         0.436020
