19
Iteration:  2935charge 0 multiplicity 1
 O         0.605607         0.255352         0.668995
 C        -0.737932         0.606376         0.782441
 C        -1.235421         0.684514         2.230984
 C        -2.563679         0.022239         1.654130
 C        -3.344326         0.720392         0.540772
 C        -2.771884         2.121074         0.329710
 C        -1.275086         1.833893        -0.072081
 O        -2.727786        -0.205519        -0.462585
 C        -1.796436        -0.608324         0.481283
 H         1.167516         1.162974         0.553973
 H        -0.635932        -0.088133         2.811754
 H        -1.152231         1.712161         2.766085
 H        -3.332078        -0.731313         2.218730
 H        -4.477537         0.748215         0.459825
 H        -3.377521         2.606529        -0.445998
 H        -2.796455         2.725595         1.277249
 H        -1.256480         1.740064        -1.153493
 H        -0.598475         2.652619         0.075873
 H        -1.263759        -1.577301         0.206404
