19
Iteration:   949charge 0 multiplicity 1
 O         0.628925         0.325620         0.647038
 C        -0.721361         0.636255         0.780722
 C        -1.349594         0.757136         2.235356
 C        -2.554613        -0.056985         1.712311
 C        -3.296446         0.675990         0.531734
 C        -2.692042         2.055499         0.323495
 C        -1.192977         1.837805        -0.071129
 O        -2.818389        -0.252902        -0.484660
 C        -1.824567        -0.560800         0.464264
 H         1.218579         1.054409         0.507482
 H        -0.813176         0.064087         2.891064
 H        -1.358043         1.783011         2.579939
 H        -3.241703        -0.780668         2.353724
 H        -4.423972         0.789430         0.681263
 H        -3.255350         2.738369        -0.448209
 H        -2.783207         2.600458         1.293631
 H        -1.154342         1.648686        -1.177881
 H        -0.561109         2.687548         0.139456
 H        -1.392746        -1.576965         0.297171
