19
Iteration:  1388charge 0 multiplicity 1
 O         0.708772         0.380100         0.746045
 C        -0.719641         0.550998         0.785155
 C        -1.325193         0.680834         2.146031
 C        -2.608269        -0.018205         1.622731
 C        -3.336575         0.726585         0.582817
 C        -2.703815         2.077366         0.321882
 C        -1.190484         1.796629        -0.057746
 O        -2.884516        -0.187207        -0.460810
 C        -1.770951        -0.588896         0.410351
 H         1.077139         1.172045         0.466349
 H        -0.788139        -0.062222         2.709247
 H        -1.244210         1.659798         2.691422
 H        -3.180492        -0.710138         2.314370
 H        -4.413949         0.829624         0.592164
 H        -3.170758         2.579620        -0.525442
 H        -2.773004         2.502316         1.359244
 H        -1.173418         1.516510        -1.080445
 H        -0.498839         2.660342         0.157239
 H        -1.539185        -1.622072         0.455846
