19
Iteration:  1472charge 0 multiplicity 1
 O         0.651519         0.462527         0.516463
 C        -0.733370         0.547538         0.780495
 C        -1.280863         0.559454         2.290183
 C        -2.603132         0.045949         1.651375
 C        -3.385299         0.781877         0.526567
 C        -2.697874         2.103877         0.203106
 C        -1.199871         1.836645         0.124841
 O        -2.801628        -0.249378        -0.458047
 C        -1.772840        -0.597043         0.460246
 H         0.910109        -0.332248         1.075644
 H        -0.786400        -0.170571         2.964291
 H        -1.352600         1.501891         2.836613
 H        -3.261488        -0.432752         2.438659
 H        -4.497442         0.828904         0.485954
 H        -3.005538         2.539776        -0.742875
 H        -2.914584         2.904812         0.942574
 H        -0.942328         1.689065        -0.973342
 H        -0.629501         2.722801         0.509701
 H        -1.413702        -1.678778         0.514954
