19
Iteration:  1940charge 0 multiplicity 1
 O         0.690284         0.456693         0.800802
 C        -0.690684         0.550339         0.697966
 C        -1.287439         0.610091         2.125618
 C        -2.570678        -0.017244         1.742754
 C        -3.344788         0.747944         0.583002
 C        -2.704365         2.122883         0.359581
 C        -1.183139         1.811121        -0.059105
 O        -2.836026        -0.262950        -0.543146
 C        -1.890146        -0.584653         0.476533
 H         1.146496         0.900970        -0.056638
 H        -0.739404        -0.213990         2.751635
 H        -1.326677         1.756601         2.518939
 H        -3.170524        -0.663252         2.373307
 H        -4.429405         0.679570         0.646222
 H        -3.201896         2.613789        -0.594594
 H        -2.905263         2.748972         1.241598
 H        -1.320981         1.472324        -1.100295
 H        -0.484416         2.688261        -0.056456
 H        -1.554661        -1.651690         0.482180
