19
Iteration:  4587charge 0 multiplicity 1
 O         0.643680         0.322949         0.724766
 C        -0.767602         0.585405         0.707999
 C        -1.273224         0.605795         2.219305
 C        -2.606683         0.051102         1.728388
 C        -3.365079         0.710867         0.573055
 C        -2.756615         2.047465         0.184237
 C        -1.143973         1.936472         0.084881
 O        -2.816100        -0.213000        -0.519457
 C        -1.765796        -0.575725         0.454503
 H         0.916336         0.343863        -0.188712
 H        -0.672864        -0.183260         2.787502
 H        -1.163169         1.542632         2.895371
 H        -3.261249        -0.697064         2.257259
 H        -4.476746         0.688362         0.669907
 H        -3.191401         2.530486        -0.757406
 H        -3.007485         2.700207         1.100313
 H        -0.791231         1.999261        -0.914098
 H        -0.623596         2.791344         0.615051
 H        -1.199716        -1.494817         0.261584
