19
Iteration:  2580
 O         0.625682         0.413226         0.499454
 C        -0.755299         0.604339         0.829458
 C        -1.325002         0.630529         2.308520
 C        -2.618771         0.022332         1.715141
 C        -3.320085         0.762147         0.553086
 C        -2.693584         2.086512         0.188809
 C        -1.220112         1.815921         0.080648
 O        -2.730192        -0.246964        -0.415791
 C        -1.774148        -0.606951         0.508514
 H         0.634537         0.378374        -0.430102
 H        -0.833835        -0.170467         2.883569
 H        -1.313898         1.615242         2.749498
 H        -3.301736        -0.576354         2.391854
 H        -4.384366         0.624534         0.495168
 H        -3.215435         2.331983        -0.728902
 H        -2.900689         2.726306         1.052654
 H        -0.912864         1.645274        -0.986850
 H        -0.632430         2.858105         0.289460
 H        -1.354390        -1.551137         0.179109
