19
Iteration:   100
 O         0.517465         0.220926         0.368013
 C        -0.796445         0.646904         0.818835
 C        -1.343983         0.690331         2.263978
 C        -2.625302         0.066675         1.798111
 C        -3.274739         0.675793         0.588408
 C        -2.704151         1.963804         0.087923
 C        -1.180439         1.967061         0.220209
 O        -2.709052        -0.253109        -0.475169
 C        -1.742609        -0.458412         0.510168
 H         1.116100         0.443525         1.010831
 H        -0.857483        -0.097923         2.854614
 H        -1.329374         1.694806         2.666909
 H        -3.194625        -0.592421         2.426646
 H        -4.376218         0.539283         0.569222
 H        -2.925210         2.073631        -0.938355
 H        -3.129379         2.809654         0.579576
 H        -0.611617         2.029848        -0.711398
 H        -0.750975         2.761122         0.784967
 H        -1.242798        -1.457732         0.448579
