19
Iteration:  4397
 O         0.560435         0.223652         0.657725
 C        -0.771996         0.601924         0.746944
 C        -1.266614         0.705259         2.244635
 C        -2.545235        -0.110051         1.746469
 C        -3.334378         0.733635         0.556047
 C        -2.735302         2.147270         0.258823
 C        -1.257163         1.940618         0.000189
 O        -2.749228        -0.217987        -0.481255
 C        -1.722666        -0.583149         0.430321
 H         1.183166         0.941062         0.335582
 H        -0.837535         0.113204         3.040823
 H        -1.442885         1.668286         2.774433
 H        -3.210329        -0.716362         2.424164
 H        -4.395863         0.673811         0.400499
 H        -3.121141         2.731121        -0.599137
 H        -2.873446         2.898135         0.999921
 H        -1.254266         1.649234        -1.023838
 H        -0.517870         2.669642         0.093426
 H        -1.284633        -1.635075         0.368533
