19
Iteration:  4555
 O         0.657038         0.392461         0.669792
 C        -0.756484         0.566033         0.863062
 C        -1.278393         0.495484         2.305500
 C        -2.557524         0.004197         1.723148
 C        -3.343233         0.792238         0.559711
 C        -2.743421         2.114506         0.074334
 C        -1.183450         1.862999         0.061347
 O        -2.858032        -0.146134        -0.491972
 C        -1.737310        -0.631970         0.461991
 H         0.998954         0.816073        -0.198284
 H        -0.741933        -0.339045         2.863214
 H        -1.309614         1.406386         2.965992
 H        -3.262975        -0.723035         2.131646
 H        -4.435775         0.678399         0.754212
 H        -3.191766         2.421308        -0.904359
 H        -3.035454         2.847358         0.909852
 H        -1.074799         1.553024        -0.946809
 H        -0.648506         2.851055         0.160514
 H        -1.258946        -1.573820         0.274532
