19
Iteration:  4261
 O         0.589530         0.222737         0.610670
 C        -0.816649         0.663096         0.796520
 C        -1.302507         0.705539         2.191334
 C        -2.554860        -0.052348         1.723620
 C        -3.354739         0.700612         0.504000
 C        -2.690645         2.072277         0.330079
 C        -1.211958         1.924465        -0.044655
 O        -2.747172        -0.191453        -0.473004
 C        -1.746935        -0.600346         0.539357
 H         1.259245         0.989800         0.357325
 H        -0.852052        -0.076966         2.854161
 H        -1.225878         1.750031         2.494990
 H        -3.143186        -0.686172         2.343095
 H        -4.479610         0.593942         0.376480
 H        -3.263757         2.646703        -0.361232
 H        -2.916456         2.615200         1.247605
 H        -1.018140         1.768982        -1.121387
 H        -0.756753         2.791408         0.307885
 H        -1.317192        -1.541863         0.254303
