19
Iteration:  1093charge 0 multiplicity 1
 O         0.588270         0.242621         0.707481
 C        -0.799750         0.662125         0.753155
 C        -1.341169         0.763861         2.226598
 C        -2.467185        -0.203983         1.721150
 C        -3.289805         0.679890         0.626345
 C        -2.677248         2.131581         0.256697
 C        -1.228175         1.866975        -0.152447
 O        -2.841816        -0.178582        -0.466418
 C        -1.743740        -0.537778         0.449805
 H         1.000872         0.987018         1.055771
 H        -0.657059         0.283087         2.932117
 H        -1.581424         1.810059         2.358854
 H        -2.984634        -0.838780         2.510428
 H        -4.396978         0.650335         0.875715
 H        -3.292337         2.439118        -0.628779
 H        -2.859694         2.871615         0.882821
 H        -1.134867         1.513705        -1.145203
 H        -0.595083         2.748738         0.049970
 H        -1.253919        -1.530541         0.114351
