19
Iteration:  1481
 O         0.616123         0.474252         0.543209
 C        -0.778092         0.574448         0.773210
 C        -1.337462         0.607808         2.230094
 C        -2.605120        -0.013394         1.677949
 C        -3.289380         0.790387         0.563795
 C        -2.641356         2.125334         0.252910
 C        -1.156430         1.838280         0.076177
 O        -2.844275        -0.287473        -0.495416
 C        -1.769273        -0.577304         0.490763
 H         1.083399         0.012292         1.313405
 H        -0.825642        -0.176424         2.797964
 H        -1.319948         1.411873         2.752097
 H        -3.425836        -0.480571         2.207940
 H        -4.403198         0.804203         0.697070
 H        -3.139665         2.416188        -0.712745
 H        -2.841192         2.745328         1.123502
 H        -1.081222         1.605569        -1.017653
 H        -0.410166         2.529294         0.399508
 H        -1.436745        -1.677789         0.325049
