19
Iteration:  2661charge 0 multiplicity 1
 O         0.609289         0.377594         0.671759
 C        -0.775239         0.621420         0.731953
 C        -1.395190         0.675693         2.253767
 C        -2.486939        -0.128194         1.704274
 C        -3.260534         0.748303         0.615396
 C        -2.656462         2.072227         0.264157
 C        -1.169983         1.792145        -0.098985
 O        -2.872750        -0.181331        -0.435688
 C        -1.771609        -0.583669         0.425751
 H         1.069364         1.146635         0.505461
 H        -0.728648         0.117895         2.908810
 H        -1.545389         1.609499         2.821523
 H        -3.163911        -0.693605         2.494530
 H        -4.385184         0.719774         0.686170
 H        -3.262114         2.389669        -0.620468
 H        -2.844144         2.867815         1.044704
 H        -1.236972         1.465305        -1.145900
 H        -0.478011         2.761241         0.083851
 H        -1.393519        -1.585558         0.127749
