19
Iteration:   468
 O         0.691982         0.398480         0.757155
 C        -0.708286         0.543372         0.788995
 C        -1.280518         0.710265         2.201692
 C        -2.621951        -0.037081         1.722418
 C        -3.361623         0.713540         0.575094
 C        -2.741413         2.088077         0.237546
 C        -1.246103         1.798403        -0.087455
 O        -2.719057        -0.125832        -0.500182
 C        -1.847307        -0.660801         0.507060
 H         1.070813         0.641572        -0.028074
 H        -0.530173         0.045005         2.737557
 H        -1.402484         1.789658         2.481985
 H        -3.273051        -0.537327         2.373106
 H        -4.483933         0.591024         0.586479
 H        -3.170892         2.501918        -0.672910
 H        -2.922376         2.792858         1.147512
 H        -1.362852         1.444847        -1.040137
 H        -0.546329         2.635845         0.001734
 H        -1.628970        -1.816975         0.403050
