19
Iteration:  1764
 O         0.632724         0.214057         0.617005
 C        -0.715593         0.682854         0.780726
 C        -1.312408         0.682723         2.213264
 C        -2.530020        -0.059036         1.627769
 C        -3.326346         0.654097         0.534179
 C        -2.702548         2.069042         0.227817
 C        -1.151510         1.971082         0.159707
 O        -2.869016        -0.234675        -0.510650
 C        -1.856532        -0.545575         0.484279
 H         1.113463         0.961373         0.348941
 H        -0.650035         0.134062         2.980188
 H        -1.442166         1.735917         2.669405
 H        -3.115746        -0.714460         2.293444
 H        -4.406536         0.551882         0.752170
 H        -3.176204         2.452056        -0.792960
 H        -2.984266         2.713191         1.077769
 H        -0.862218         1.936860        -1.001251
 H        -0.656747         2.924387         0.709139
 H        -1.277932        -1.519529         0.362497
