19
Iteration:  1251charge 0 multiplicity 1
 O         0.666425         0.438505         0.593253
 C        -0.735138         0.577012         0.779144
 C        -1.330626         0.613044         2.326298
 C        -2.617042        -0.035333         1.664640
 C        -3.264426         0.777879         0.593951
 C        -2.662682         2.102477         0.242875
 C        -1.185355         1.723664        -0.047420
 O        -2.830150        -0.223722        -0.457361
 C        -1.847059        -0.564457         0.480880
 H         1.030071         1.415344         0.606651
 H        -0.954195        -0.354837         2.794774
 H        -1.616713         1.582311         2.899075
 H        -3.267717        -0.713292         2.138315
 H        -4.371401         0.723454         0.670045
 H        -3.144046         2.567125        -0.565939
 H        -2.736540         2.760627         1.107498
 H        -1.101373         1.377524        -1.135256
 H        -0.621019         2.646551         0.064739
 H        -1.262838        -1.456727         0.200119
