19
Iteration:  1273charge 0 multiplicity 1
 O         0.560845         0.250964         0.511106
 C        -0.755294         0.664697         0.881765
 C        -1.263913         0.629534         2.316847
 C        -2.576473        -0.100881         1.708086
 C        -3.346952         0.718424         0.489249
 C        -2.756888         2.124214         0.204674
 C        -1.134301         1.897687         0.031889
 O        -2.787862        -0.202571        -0.472426
 C        -1.734759        -0.514286         0.532731
 H         1.069783         0.999676         0.390825
 H        -0.701080        -0.188090         2.909887
 H        -1.533642         1.680788         2.758979
 H        -3.310437        -0.619592         2.244079
 H        -4.447371         0.537345         0.518694
 H        -3.114743         2.411334        -0.738885
 H        -3.107754         2.748583         0.984984
 H        -0.925568         1.701264        -1.070465
 H        -0.574886         2.772055         0.373358
 H        -1.274197        -1.536490         0.463627
