19
Iteration:  1473
 O         0.647391         0.467831         0.516888
 C        -0.739423         0.547779         0.774475
 C        -1.286271         0.555567         2.281993
 C        -2.603115         0.043249         1.648922
 C        -3.382431         0.783274         0.533866
 C        -2.690445         2.107149         0.205192
 C        -1.195740         1.835711         0.122603
 O        -2.804444        -0.255510        -0.461135
 C        -1.764242        -0.597413         0.459835
 H         0.922178        -0.331966         1.131189
 H        -0.773224        -0.168705         2.956898
 H        -1.366085         1.565502         2.884623
 H        -3.302693        -0.411536         2.433857
 H        -4.485122         0.839359         0.509556
 H        -3.009964         2.506776        -0.735508
 H        -2.895803         2.894145         0.975465
 H        -0.983042         1.663361        -0.967444
 H        -0.594549         2.724136         0.519133
 H        -1.432960        -1.659472         0.504976
