19
Iteration:   499charge 0 multiplicity 1
 O         0.676029         0.484280         0.806378
 C        -0.719727         0.606627         0.793469
 C        -1.336709         0.652126         2.240525
 C        -2.589423        -0.014744         1.627997
 C        -3.347462         0.749386         0.559728
 C        -2.599644         2.094541         0.253495
 C        -1.151094         1.754148        -0.162246
 O        -2.953227        -0.305705        -0.452871
 C        -1.794013        -0.609225         0.456676
 H         1.073668         1.114372         0.050182
 H        -0.603774         0.040269         2.810970
 H        -1.375400         1.602193         2.813871
 H        -3.305984        -0.593009         2.201281
 H        -4.483685         0.737559         0.722807
 H        -3.155978         2.920213        -0.279479
 H        -2.523417         2.521414         1.317113
 H        -1.148603         1.392606        -1.237567
 H        -0.461446         2.591501        -0.210901
 H        -1.502287        -1.663968         0.363441
