19
Iteration:  1928
 O         0.704754         0.490294         0.665133
 C        -0.752445         0.548272         0.768731
 C        -1.297026         0.652544         2.232248
 C        -2.626404        -0.005801         1.614804
 C        -3.357230         0.734984         0.516197
 C        -2.638130         2.091982         0.321074
 C        -1.213274         1.759376         0.029892
 O        -2.861722        -0.250550        -0.450277
 C        -1.805341        -0.626038         0.463952
 H         0.973952         0.936862        -0.129622
 H        -0.707393        -0.047111         2.996628
 H        -1.175002         1.696344         2.854175
 H        -3.208292        -0.666196         2.269542
 H        -4.449275         0.817665         0.467722
 H        -3.061328         2.745897        -0.596785
 H        -2.769924         2.733240         1.217520
 H        -1.182111         1.552627        -1.079349
 H        -0.491104         2.570382         0.206009
 H        -1.516317        -1.723553         0.434571
