19
Iteration:   560
 O         0.725201         0.213321         0.613708
 C        -0.700262         0.563713         0.815144
 C        -1.207196         0.728028         2.241709
 C        -2.592774         0.090387         1.742273
 C        -3.363567         0.669935         0.460360
 C        -2.913313         2.064973         0.110142
 C        -1.217474         1.941401         0.165901
 O        -2.705851        -0.201239        -0.499365
 C        -1.803961        -0.546301         0.555593
 H         0.474032        -0.260746        -0.263927
 H        -0.654758         0.048220         2.872715
 H        -1.276457         1.763736         2.558707
 H        -3.379036        -0.267956         2.497290
 H        -4.387013         0.501324         0.573458
 H        -3.192333         2.264802        -0.948748
 H        -3.325836         2.799433         0.819563
 H        -0.935119         1.980207        -0.832984
 H        -0.865194         2.753539         0.795737
 H        -1.548576        -1.604482         0.445465
