19
Iteration:  4095
 O         0.669197         0.386302         0.697355
 C        -0.643160         0.603432         0.826715
 C        -1.297439         0.564045         2.211392
 C        -2.583685        -0.017646         1.707743
 C        -3.322548         0.759310         0.571717
 C        -2.718758         2.051998         0.223897
 C        -1.229021         1.772725        -0.022598
 O        -2.910607        -0.163817        -0.474198
 C        -1.769568        -0.528266         0.484738
 H         1.029831         1.045096         0.212404
 H        -0.689174        -0.299175         2.547449
 H        -1.186728         1.454902         2.963634
 H        -3.155877        -0.767589         2.265031
 H        -4.465801         0.844281         0.481534
 H        -3.078846         2.486189        -0.668880
 H        -2.989998         2.950171         0.849585
 H        -1.117707         1.435670        -1.065621
 H        -0.622641         2.652255         0.060864
 H        -1.466966        -1.510803         0.186908
