19
Iteration:  3803
 O         0.639437         0.365565         0.676741
 C        -0.783022         0.598164         0.796125
 C        -1.414091         0.664772         2.136235
 C        -2.585308        -0.091862         1.716850
 C        -3.296548         0.750431         0.538417
 C        -2.666778         2.181492         0.361320
 C        -1.160566         1.798205        -0.073219
 O        -2.791252        -0.236151        -0.453668
 C        -1.771226        -0.612908         0.512864
 H         0.806491         0.918443        -0.214752
 H        -0.642372         0.105544         2.786104
 H        -1.540800         1.566756         2.745919
 H        -3.150447        -0.833182         2.246176
 H        -4.340797         0.868073         0.475068
 H        -3.192810         2.675975        -0.559370
 H        -2.726516         2.980628         1.131165
 H        -1.163104         1.414032        -1.124922
 H        -0.578425         2.669793         0.244404
 H        -1.286493        -1.583131         0.283361
