19
Iteration:   887charge 0 multiplicity 1
 O         0.623136         0.252762         0.634535
 C        -0.725294         0.668623         0.768332
 C        -1.272200         0.643129         2.259254
 C        -2.533160         0.013215         1.716588
 C        -3.320510         0.710343         0.533635
 C        -2.738510         2.072879         0.130835
 C        -1.203948         1.937916         0.003184
 O        -2.900772        -0.290512        -0.459444
 C        -1.749607        -0.526355         0.497919
 H         1.218574         0.944427         0.796835
 H        -0.775140        -0.172374         2.804813
 H        -1.102183         1.605934         2.804934
 H        -3.105248        -0.560995         2.312103
 H        -4.396110         0.574544         0.701949
 H        -3.219767         2.430047        -0.739738
 H        -3.035168         2.697999         1.024096
 H        -0.866488         1.953624        -1.011996
 H        -0.800956         2.783563         0.696518
 H        -1.336033        -1.578406         0.324800
