19
Iteration:  4342charge 0 multiplicity 1
 O         0.666184         0.304167         0.603235
 C        -0.815563         0.588965         0.753060
 C        -1.244137         0.665089         2.198747
 C        -2.547605         0.015185         1.702968
 C        -3.282631         0.765007         0.512798
 C        -2.771606         2.147616         0.250841
 C        -1.242447         1.922297         0.052353
 O        -2.860153        -0.289393        -0.440393
 C        -1.763271        -0.643474         0.435304
 H         1.257204         0.921846         1.233052
 H        -0.607896        -0.047255         2.733328
 H        -1.339489         1.698599         2.588294
 H        -3.363926        -0.520136         2.281605
 H        -4.351760         0.674758         0.543051
 H        -3.162310         2.683673        -0.644714
 H        -2.748698         2.595354         1.234456
 H        -0.999988         1.690401        -0.961961
 H        -0.518055         2.601850         0.420233
 H        -1.433717        -1.750676         0.525188
