19
Iteration:  4350charge 0 multiplicity 1
 O         0.681333         0.289246         0.567290
 C        -0.784077         0.621766         0.781724
 C        -1.335252         0.656055         2.197932
 C        -2.557159        -0.040784         1.741818
 C        -3.314334         0.745127         0.485592
 C        -2.727340         2.124691         0.307655
 C        -1.203552         1.860427        -0.010096
 O        -2.831346        -0.267540        -0.450015
 C        -1.803811        -0.576901         0.477544
 H         1.268180         0.932302         1.170482
 H        -0.618018         0.162973         2.892028
 H        -1.373689         1.649501         2.670788
 H        -3.204727        -0.659325         2.386891
 H        -4.421856         0.761449         0.592998
 H        -3.198604         2.675719        -0.489236
 H        -2.922410         2.891966         1.062358
 H        -0.977406         1.715375        -1.098599
 H        -0.573745         2.674980         0.311381
 H        -1.249813        -1.528790         0.269968
