19
Iteration:   849charge 0 multiplicity 1
 O         0.548585         0.159410         0.397130
 C        -0.796745         0.641605         0.824792
 C        -1.398389         0.799928         2.301508
 C        -2.523816        -0.034371         1.717228
 C        -3.232588         0.652965         0.564630
 C        -2.724577         2.016678         0.120427
 C        -1.167554         1.983440         0.137152
 O        -2.774538        -0.237103        -0.443998
 C        -1.758898        -0.571362         0.518768
 H         1.172135         0.919650         0.703900
 H        -0.913041         0.238806         3.107067
 H        -1.534500         1.798938         2.675076
 H        -3.119630        -0.730842         2.460002
 H        -4.347877         0.717684         0.650933
 H        -3.175525         2.281045        -0.961032
 H        -3.001134         2.861308         0.768533
 H        -0.500081         2.292300        -0.696893
 H        -0.930494         2.750745         0.767881
 H        -1.181696        -1.449456         0.488043
