19
Iteration:  1437
 O         0.578297         0.257367         0.561064
 C        -0.759256         0.672118         0.796120
 C        -1.294411         0.631170         2.267931
 C        -2.570996         0.035425         1.709244
 C        -3.328999         0.735035         0.570961
 C        -2.742963         2.070750         0.192181
 C        -1.220077         1.963245         0.146374
 O        -2.713828        -0.229860        -0.498286
 C        -1.771696        -0.561729         0.482710
 H         0.645424        -0.505649        -0.152608
 H        -0.798572        -0.108136         2.935309
 H        -1.387020         1.554887         2.715468
 H        -3.141830        -0.593301         2.372401
 H        -4.430160         0.585308         0.473581
 H        -2.973469         2.213312        -0.906921
 H        -3.124103         2.888024         0.806882
 H        -0.802247         2.052963        -0.899576
 H        -0.799019         2.793951         0.689565
 H        -1.133369        -1.551828         0.415160
