19
Iteration:   297charge 0 multiplicity 1
 O         0.646903         0.244222         0.548100
 C        -0.786408         0.656952         0.784621
 C        -1.285483         0.690210         2.274965
 C        -2.585183        -0.042747         1.730975
 C        -3.367188         0.747261         0.607175
 C        -2.764441         2.122675         0.125227
 C        -1.203508         1.891542         0.029421
 O        -2.783479        -0.293812        -0.433793
 C        -1.722519        -0.499766         0.456479
 H         1.062075         0.621528         1.316059
 H        -0.732566        -0.005906         2.890083
 H        -1.366665         1.540116         2.945846
 H        -3.172209        -0.748962         2.361388
 H        -4.430847         0.656401         0.599855
 H        -3.122513         2.153856        -0.895650
 H        -3.061126         3.156165         0.490332
 H        -0.874409         1.677485        -0.985053
 H        -0.680995         2.727998         0.414852
 H        -1.234737        -1.465009         0.360366
