19
Iteration:  4492
 O         0.654711         0.202920         0.768004
 C        -0.730460         0.665732         0.734892
 C        -1.282168         0.704715         2.206643
 C        -2.544858        -0.022530         1.647125
 C        -3.378233         0.714238         0.543785
 C        -2.779897         2.061560         0.299289
 C        -1.293683         1.909776         0.051393
 O        -2.793006        -0.181352        -0.556642
 C        -1.714585        -0.515685         0.472926
 H         0.983567        -0.122240        -0.127655
 H        -0.582601         0.128878         2.818896
 H        -1.260308         1.659863         2.706505
 H        -2.896234        -0.727873         2.403778
 H        -4.498397         0.696578         0.551641
 H        -3.130116         2.661776        -0.512121
 H        -2.861617         2.637507         1.255984
 H        -1.173681         1.515172        -1.019216
 H        -0.675805         2.849558         0.070536
 H        -1.382453        -1.539279         0.438438
