19
Iteration:  2135
 O         0.566276         0.290639         0.436187
 C        -0.824668         0.631564         0.824215
 C        -1.305851         0.688290         2.325847
 C        -2.556910        -0.018042         1.734035
 C        -3.253733         0.747628         0.529651
 C        -2.734802         2.088417         0.222246
 C        -1.259484         1.863144         0.010388
 O        -2.718015        -0.283910        -0.487328
 C        -1.772407        -0.554061         0.576529
 H         1.098380         1.079233         0.718977
 H        -0.710927         0.011184         2.998719
 H        -1.241189         1.630988         2.795453
 H        -3.250466        -0.559161         2.383073
 H        -4.359456         0.726938         0.461158
 H        -3.254503         2.574081        -0.681448
 H        -2.754440         2.665127         1.165180
 H        -0.996472         1.550912        -1.066288
 H        -0.642425         2.753770         0.233654
 H        -1.343703        -1.593167         0.565203
