19
Iteration:  3131charge 0 multiplicity 1
 O         0.596664         0.377403         0.515072
 C        -0.735066         0.561471         0.851167
 C        -1.353693         0.530759         2.320509
 C        -2.578256        -0.023865         1.716738
 C        -3.253781         0.787653         0.505915
 C        -2.694187         2.100836         0.197844
 C        -1.186285         1.858568         0.013825
 O        -2.803054        -0.220978        -0.503929
 C        -1.826627        -0.579439         0.568372
 H         1.045183         1.330981         0.422878
 H        -0.657694         0.050355         3.004728
 H        -1.403164         1.541201         2.800955
 H        -3.429514        -0.643438         2.158207
 H        -4.323259         0.697085         0.469939
 H        -3.174201         2.548432        -0.671309
 H        -2.872198         2.710230         1.103674
 H        -0.791370         1.486782        -0.965671
 H        -0.602104         2.838101         0.330533
 H        -1.332207        -1.582211         0.509492
