19
Iteration:  3760
 O         0.704977         0.300669         0.672076
 C        -0.723657         0.678654         0.763396
 C        -1.250245         0.695228         2.226925
 C        -2.640078        -0.025169         1.675145
 C        -3.391720         0.697153         0.532975
 C        -2.749659         2.045106         0.253540
 C        -1.253673         1.865684         0.048853
 O        -2.779778        -0.190597        -0.489674
 C        -1.752026        -0.519025         0.488504
 H         0.802419        -0.410606        -0.072072
 H        -0.606239        -0.118615         2.722813
 H        -1.155395         1.578409         2.892296
 H        -3.180886        -0.543941         2.409982
 H        -4.419219         0.526464         0.467472
 H        -3.146369         2.648761        -0.612341
 H        -3.058563         2.751309         1.014184
 H        -1.129003         1.783344        -1.061997
 H        -0.639478         2.696727         0.423811
 H        -1.509791        -1.601392         0.465704
