19
Iteration:  1983
 O         0.628678         0.299905         0.707168
 C        -0.744148         0.763708         0.829032
 C        -1.330978         0.695817         2.208624
 C        -2.520703        -0.147220         1.668451
 C        -3.303947         0.708743         0.639487
 C        -2.718045         2.069517         0.290138
 C        -1.171478         1.853019        -0.049122
 O        -2.872483        -0.248346        -0.502710
 C        -1.763545        -0.493832         0.427963
 H         0.607279        -0.198124        -0.169841
 H        -0.597824         0.249065         2.977274
 H        -1.759206         1.760895         2.505259
 H        -2.992358        -0.734545         2.434205
 H        -4.384985         0.797396         0.725545
 H        -3.311864         2.424598        -0.686225
 H        -2.852589         2.933499         0.978849
 H        -0.997016         1.475947        -1.079114
 H        -0.501126         2.716142         0.042289
 H        -1.051267        -1.330059         0.270790
