19
Iteration:  2161
 O         0.635292         0.285130         0.330413
 C        -0.763886         0.594695         0.810572
 C        -1.363106         0.672000         2.272867
 C        -2.584597        -0.040899         1.743006
 C        -3.326614         0.679274         0.553607
 C        -2.759545         2.064090         0.096202
 C        -1.172440         1.911757         0.181924
 O        -2.787387        -0.197840        -0.401932
 C        -1.737456        -0.555489         0.613324
 H         1.157432         1.051066         0.528199
 H        -0.947483         0.098883         3.069605
 H        -1.322950         1.722581         2.702988
 H        -3.189557        -0.597875         2.403181
 H        -4.393978         0.662318         0.533654
 H        -2.958784         2.145121        -0.998842
 H        -3.075961         2.929541         0.728428
 H        -0.828987         1.815693        -0.793074
 H        -0.552258         2.710317         0.659263
 H        -1.339554        -1.528549         0.484730
