19
Iteration:  3012charge 0 multiplicity 1
 O         0.617739         0.330118         0.506541
 C        -0.724009         0.571954         0.824394
 C        -1.201927         0.546268         2.252441
 C        -2.628057         0.072835         1.704888
 C        -3.379512         0.775998         0.509082
 C        -2.767713         2.053466         0.141693
 C        -1.198557         1.916119         0.105638
 O        -2.744962        -0.244595        -0.455578
 C        -1.811101        -0.585712         0.528310
 H         1.065079         1.030035         0.943742
 H        -0.934999        -0.117680         3.008248
 H        -0.910561         1.430474         2.800867
 H        -3.147512        -0.643009         2.495216
 H        -4.473727         0.728493         0.398138
 H        -3.122393         2.429629        -0.841316
 H        -3.019412         2.757523         0.946850
 H        -1.016018         1.864225        -0.970172
 H        -0.782605         2.899828         0.341939
 H        -1.466239        -1.646217         0.693866
