19
Iteration:  1553charge 0 multiplicity 1
 O         0.626209         0.180105         0.588640
 C        -0.792167         0.620469         0.770369
 C        -1.318097         0.673787         2.251648
 C        -2.572984        -0.080305         1.736009
 C        -3.279518         0.716401         0.538783
 C        -2.803943         2.125860         0.230577
 C        -1.169144         1.874252         0.004794
 O        -2.761054        -0.174162        -0.487693
 C        -1.780852        -0.519829         0.470256
 H         1.164650         1.045895         0.801336
 H        -0.667211         0.051176         2.872892
 H        -1.466954         1.749496         2.801153
 H        -3.145348        -0.737263         2.399396
 H        -4.356941         0.665738         0.611742
 H        -3.337399         2.539663        -0.654860
 H        -3.027372         2.620613         1.195398
 H        -0.902699         1.925639        -1.072758
 H        -0.686936         2.798077         0.535000
 H        -1.191712        -1.374023         0.297424
