19
Iteration:   147charge 0 multiplicity 1
 O         0.628778         0.354603         0.627803
 C        -0.740239         0.574716         0.766143
 C        -1.288604         0.660248         2.227399
 C        -2.579765         0.054107         1.687962
 C        -3.336321         0.732059         0.494178
 C        -2.722239         2.099937         0.241300
 C        -1.193420         1.872020         0.080604
 O        -2.797794        -0.291003        -0.476617
 C        -1.801349        -0.615134         0.546025
 H         0.946205         0.780028        -0.153917
 H        -0.808404        -0.107832         2.757950
 H        -1.317209         1.609201         2.731757
 H        -3.228052        -0.387954         2.476736
 H        -4.458079         0.626204         0.541699
 H        -3.134468         2.518759        -0.747002
 H        -2.969880         2.778800         0.971936
 H        -0.889669         1.848296        -1.039219
 H        -0.499136         2.657696         0.478372
 H        -1.369449        -1.563966         0.480303
