19
Iteration:  3815charge 0 multiplicity 1
 O         0.625007         0.358623         0.686845
 C        -0.746029         0.623888         0.752020
 C        -1.312663         0.630025         2.271283
 C        -2.595220        -0.114592         1.702794
 C        -3.343444         0.756627         0.623551
 C        -2.666858         2.088461         0.223817
 C        -1.170297         1.834533        -0.064367
 O        -2.817069        -0.197540        -0.488817
 C        -1.815399        -0.544684         0.464438
 H         1.167852         0.979200         0.141684
 H        -0.887736        -0.150885         2.984963
 H        -1.477269         1.658009         2.639243
 H        -3.116417        -0.646966         2.447491
 H        -4.392539         0.651712         0.650440
 H        -3.278412         2.516515        -0.643525
 H        -2.719805         2.715751         1.143435
 H        -1.001102         1.637147        -1.148714
 H        -0.446954         2.644399         0.050103
 H        -1.353245        -1.557390         0.324951
