19
Iteration:  2324charge 0 multiplicity 1
 O         0.607389         0.321727         0.571059
 C        -0.725004         0.637711         0.747267
 C        -1.298087         0.696783         2.299493
 C        -2.533591        -0.102413         1.749731
 C        -3.327280         0.751620         0.604920
 C        -2.690851         1.994446         0.110174
 C        -1.218621         1.934373         0.102320
 O        -2.835256        -0.193416        -0.422720
 C        -1.763208        -0.667914         0.448812
 H         0.907796         0.677629        -0.346625
 H        -0.652551         0.367990         3.068207
 H        -1.626080         1.711903         2.587236
 H        -3.210292        -0.587550         2.327792
 H        -4.374935         0.749891         0.853679
 H        -3.182815         2.142990        -0.909905
 H        -2.877262         2.761933         0.872018
 H        -0.864393         2.302328        -0.906372
 H        -0.738918         2.813926         0.729147
 H        -1.429246        -1.620007         0.040982
