19
Iteration:  3832
 O         0.663758         0.262062         0.696232
 C        -0.734790         0.630414         0.837195
 C        -1.254196         0.645482         2.277912
 C        -2.518564         0.025066         1.682524
 C        -3.299888         0.737040         0.527926
 C        -2.754025         1.996712         0.205533
 C        -1.210715         1.835676        -0.015513
 O        -2.925666        -0.166900        -0.476858
 C        -1.764303        -0.541637         0.446094
 H         1.069655         1.191783         0.462997
 H        -0.560786        -0.050006         2.698063
 H        -1.310012         1.495598         2.949913
 H        -3.095593        -0.837968         2.217913
 H        -4.467289         0.778484         0.658185
 H        -3.182226         2.381819        -0.701422
 H        -2.975624         2.908774         0.754206
 H        -0.934183         1.665574        -1.068687
 H        -0.832992         2.841214         0.298479
 H        -1.459539        -1.530751         0.123016
