19
Iteration:   277charge 0 multiplicity 1
 O         0.480683         0.293293         0.420473
 C        -0.751737         0.670798         0.875096
 C        -1.294534         0.585824         2.358429
 C        -2.560749         0.001396         1.724652
 C        -3.251235         0.722904         0.474406
 C        -2.677149         2.036552         0.011749
 C        -1.168942         1.998202         0.102960
 O        -2.784086        -0.281048        -0.413998
 C        -1.787163        -0.581166         0.599370
 H         1.203827         1.000372         0.740435
 H        -0.812082        -0.110560         3.007154
 H        -1.342113         1.497686         2.936977
 H        -3.289956        -0.597772         2.354744
 H        -4.386540         0.739010         0.645961
 H        -3.084407         2.391558        -1.021508
 H        -3.104266         2.774869         0.698845
 H        -0.717759         1.844969        -0.891846
 H        -0.820941         2.849343         0.504276
 H        -1.271565        -1.488988         0.592658
