19
Iteration:  1490
 O         0.601225         0.456532         0.577648
 C        -0.779616         0.611085         0.807581
 C        -1.354680         0.633980         2.202263
 C        -2.611163        -0.083755         1.690740
 C        -3.214385         0.754137         0.551942
 C        -2.618083         2.117611         0.305163
 C        -1.132513         1.840057        -0.030538
 O        -2.875656        -0.263628        -0.490449
 C        -1.856918        -0.601552         0.486269
 H         1.106912         0.291705         1.435709
 H        -0.832177        -0.153015         2.768087
 H        -1.313419         1.591468         2.746659
 H        -3.178824        -0.788376         2.240252
 H        -4.315046         0.820678         0.621280
 H        -3.166967         2.688514        -0.522571
 H        -2.841040         2.783418         1.134783
 H        -0.896376         1.674681        -1.088455
 H        -0.460120         2.615123         0.208684
 H        -1.284808        -1.549684         0.329633
