19
Iteration:   473
 O         0.704735         0.426835         0.788738
 C        -0.706705         0.523753         0.758665
 C        -1.281951         0.706155         2.177572
 C        -2.624773        -0.014533         1.716151
 C        -3.381439         0.724400         0.567469
 C        -2.695681         2.079987         0.280324
 C        -1.287456         1.744580        -0.062329
 O        -2.734223        -0.120404        -0.498747
 C        -1.838182        -0.663079         0.498065
 H         1.182483         0.819012        -0.056690
 H        -0.598885         0.064817         2.703924
 H        -1.322194         1.742759         2.486851
 H        -3.239832        -0.590337         2.504639
 H        -4.444267         0.671663         0.414686
 H        -3.167092         2.464371        -0.651319
 H        -2.819144         2.758652         1.068901
 H        -1.434189         1.358357        -1.177104
 H        -0.584762         2.630740        -0.122754
 H        -1.676966        -1.718279         0.407466
