19
Iteration:  2631charge 0 multiplicity 1
 O         0.659170         0.246436         0.651763
 C        -0.698068         0.615905         0.710220
 C        -1.359332         0.760171         2.207297
 C        -2.492970        -0.059562         1.667280
 C        -3.361200         0.668361         0.561769
 C        -2.734520         2.066036         0.272959
 C        -1.176008         1.883730         0.051110
 O        -2.913076        -0.210829        -0.449106
 C        -1.730216        -0.522407         0.487351
 H         1.207722         0.947316         0.125094
 H        -0.693509         0.184401         2.915346
 H        -1.453212         1.795581         2.654810
 H        -3.011752        -0.667541         2.315674
 H        -4.475619         0.649926         0.523941
 H        -3.186981         2.235391        -0.725927
 H        -3.020795         2.665495         1.134399
 H        -1.039249         1.873421        -1.034879
 H        -0.640032         2.679608         0.386508
 H        -1.373500        -1.568515         0.406952
