19
Iteration:  4436charge 0 multiplicity 1
 O         0.719204         0.428840         0.624299
 C        -0.741338         0.571641         0.791497
 C        -1.317170         0.609050         2.296322
 C        -2.618054         0.060627         1.700363
 C        -3.403160         0.708029         0.497681
 C        -2.647783         2.082135         0.211397
 C        -1.137926         1.871632         0.120038
 O        -2.909641        -0.297541        -0.465430
 C        -1.793527        -0.600543         0.420531
 H         0.924285         0.753635        -0.209377
 H        -0.708219        -0.098062         2.910910
 H        -1.184284         1.628153         2.638593
 H        -3.131328        -0.634281         2.370858
 H        -4.533744         0.821187         0.534580
 H        -2.996743         2.484394        -0.741233
 H        -2.916489         2.708718         1.127099
 H        -0.841402         1.732982        -0.982321
 H        -0.579325         2.806406         0.533162
 H        -1.456376        -1.620239         0.263278
