19
Iteration:  1432charge 0 multiplicity 1
 O         0.534937         0.239412         0.575286
 C        -0.751577         0.674340         0.823177
 C        -1.323316         0.637890         2.209691
 C        -2.518242         0.011113         1.687757
 C        -3.317095         0.739390         0.557062
 C        -2.718982         2.102561         0.202716
 C        -1.215434         1.970258         0.119364
 O        -2.718216        -0.255398        -0.462485
 C        -1.762221        -0.556053         0.491786
 H         0.646267        -0.302547        -0.204535
 H        -0.998655        -0.066525         2.967454
 H        -1.338138         1.693837         2.781240
 H        -3.097819        -0.734797         2.278487
 H        -4.381957         0.577353         0.498286
 H        -3.002053         2.167609        -0.839762
 H        -3.075799         2.900596         0.884071
 H        -0.875126         2.010615        -0.886185
 H        -0.831878         2.792192         0.779596
 H        -1.202795        -1.417456         0.277986
