19
Iteration:  4845
 O         0.659569         0.247556         0.584224
 C        -0.722446         0.608168         0.787871
 C        -1.343562         0.618520         2.366974
 C        -2.596949        -0.024099         1.680371
 C        -3.339671         0.728157         0.463953
 C        -2.777573         2.087948         0.217256
 C        -1.171088         1.961340         0.038908
 O        -2.766707        -0.163380        -0.479565
 C        -1.758837        -0.583687         0.542873
 H         0.846770         0.457405        -0.445708
 H        -0.906670        -0.031528         3.121594
 H        -1.524201         1.595867         2.903373
 H        -3.238834        -0.808249         2.130030
 H        -4.458992         0.779386         0.518156
 H        -3.348268         2.574643        -0.607896
 H        -2.976165         2.636955         1.177771
 H        -0.846719         1.760104        -0.924581
 H        -0.568175         2.759923         0.376187
 H        -1.114896        -1.511060         0.337671
