19
Iteration:  4175charge 0 multiplicity 1
 O         0.692893         0.319058         0.686775
 C        -0.748512         0.652319         0.783776
 C        -1.283854         0.593409         2.269156
 C        -2.488774        -0.028319         1.655399
 C        -3.333902         0.729546         0.504826
 C        -2.797496         2.096454         0.208550
 C        -1.237281         1.920195         0.053770
 O        -2.823332        -0.188733        -0.438092
 C        -1.821097        -0.545854         0.467831
 H         0.776126        -0.204233        -0.049005
 H        -0.665093        -0.153962         2.866949
 H        -1.216299         1.585435         2.729762
 H        -3.099917        -0.721451         2.223953
 H        -4.447422         0.608763         0.631091
 H        -3.014507         2.499529        -0.801101
 H        -3.135651         2.635143         1.104875
 H        -1.023116         1.717139        -1.031146
 H        -0.638888         2.769610         0.307985
 H        -1.292095        -1.510111         0.162876
