19
Iteration:  2128
 O         0.565620         0.274549         0.511126
 C        -0.786775         0.657858         0.806169
 C        -1.291995         0.672883         2.238148
 C        -2.573097         0.030723         1.734228
 C        -3.237599         0.675472         0.526662
 C        -2.722869         2.094497         0.266440
 C        -1.261727         1.871927        -0.007870
 O        -2.760200        -0.273475        -0.487528
 C        -1.748596        -0.556962         0.584902
 H         1.206157         1.107305         0.694779
 H        -0.869951        -0.168002         2.739624
 H        -1.365909         1.746524         2.656896
 H        -3.265806        -0.505378         2.316373
 H        -4.298790         0.658029         0.621052
 H        -3.261503         2.699483        -0.520892
 H        -2.997702         2.697923         1.183606
 H        -1.239608         1.499996        -0.981844
 H        -0.480664         2.667426         0.040977
 H        -1.216653        -1.467159         0.521288
