19
Iteration:  1930
 O         0.700647         0.488491         0.693383
 C        -0.737696         0.537626         0.738189
 C        -1.297372         0.649435         2.225336
 C        -2.628956        -0.004899         1.631305
 C        -3.356287         0.730894         0.534745
 C        -2.648691         2.099651         0.327620
 C        -1.207227         1.767966         0.023980
 O        -2.853015        -0.257909        -0.464671
 C        -1.824927        -0.618246         0.455627
 H         1.030620         0.981032        -0.171423
 H        -0.711540        -0.020840         2.936396
 H        -1.159728         1.668684         2.801546
 H        -3.171391        -0.674382         2.277375
 H        -4.443947         0.791565         0.494323
 H        -3.017549         2.711798        -0.535631
 H        -2.816511         2.752982         1.181082
 H        -1.234628         1.542425        -1.040827
 H        -0.436922         2.601108         0.109915
 H        -1.563452        -1.677465         0.488006
