19
Iteration:  2674
 O         0.590199         0.361127         0.664925
 C        -0.756736         0.653486         0.793309
 C        -1.254477         0.611457         2.233014
 C        -2.591058        -0.025822         1.686223
 C        -3.321756         0.696952         0.584932
 C        -2.667941         2.132352         0.273760
 C        -1.276054         1.787673        -0.129313
 O        -2.840653        -0.202390        -0.464477
 C        -1.727545        -0.587475         0.518151
 H         1.051328         1.315037         0.623085
 H        -0.671594        -0.217992         2.690512
 H        -1.397167         1.563631         2.836705
 H        -3.159702        -0.871523         2.105312
 H        -4.440524         0.819952         0.690866
 H        -3.095718         2.605198        -0.659802
 H        -2.649594         2.793008         1.180978
 H        -1.060484         1.506995        -1.163873
 H        -0.534520         2.646441        -0.056256
 H        -1.268363        -1.608867         0.464542
