19
Iteration:  3042
 O         0.620637         0.250077         0.496942
 C        -0.768136         0.593882         0.821992
 C        -1.307217         0.703021         2.302163
 C        -2.569457        -0.015576         1.728162
 C        -3.353540         0.742410         0.578138
 C        -2.764779         2.106534         0.187354
 C        -1.168761         1.883021         0.042349
 O        -2.742355        -0.231182        -0.498249
 C        -1.768858        -0.603620         0.477810
 H         1.137167         0.952579         1.072370
 H        -0.870482        -0.070042         2.981111
 H        -1.270356         1.734494         2.742425
 H        -3.159723        -0.649668         2.373333
 H        -4.405591         0.732888         0.437177
 H        -3.196459         2.497243        -0.702584
 H        -3.006107         2.852689         0.998467
 H        -1.107582         1.769229        -1.049679
 H        -0.827082         2.871178         0.497149
 H        -1.310219        -1.599713         0.445057
