19
Iteration:   356charge 0 multiplicity 1
 O         0.624592         0.430411         0.586689
 C        -0.750768         0.660762         0.804882
 C        -1.375500         0.632647         2.259501
 C        -2.610056        -0.062805         1.675159
 C        -3.261751         0.774019         0.515661
 C        -2.658466         2.129632         0.311786
 C        -1.214794         1.760698        -0.159238
 O        -2.803510        -0.248113        -0.409946
 C        -1.753595        -0.567395         0.499690
 H         1.019051         0.249357         1.557412
 H        -0.740900        -0.090162         2.741832
 H        -1.593356         1.545552         2.799779
 H        -3.284415        -0.733583         2.242304
 H        -4.412620         0.870593         0.449479
 H        -3.323511         2.687243        -0.466679
 H        -2.637028         2.644124         1.244575
 H        -1.144667         1.346082        -1.163352
 H        -0.570280         2.551494        -0.162437
 H        -1.324231        -1.595072         0.472624
