19
Iteration:  1794
 O         0.678819         0.370127         0.727913
 C        -0.762557         0.575559         0.775148
 C        -1.305871         0.604358         2.214757
 C        -2.598277        -0.030031         1.622200
 C        -3.355398         0.727634         0.527671
 C        -2.688201         2.151731         0.364460
 C        -1.242069         1.727677        -0.045957
 O        -2.750162        -0.154547        -0.468075
 C        -1.817959        -0.566650         0.446331
 H         1.108583         1.054222         0.172216
 H        -0.769419        -0.211527         2.781092
 H        -1.372412         1.650559         2.781927
 H        -3.209586        -0.655638         2.247216
 H        -4.432742         0.590648         0.597952
 H        -3.247109         2.785820        -0.344635
 H        -2.760753         2.786899         1.240343
 H        -1.314840         1.515797        -1.086487
 H        -0.641427         2.570549        -0.152943
 H        -1.347195        -1.504157         0.193624
