19
Iteration:  4406
 O         0.635332         0.249811         0.683114
 C        -0.795097         0.627662         0.745138
 C        -1.293047         0.639415         2.204545
 C        -2.562567         0.019109         1.676615
 C        -3.369901         0.693680         0.504414
 C        -2.724060         2.161979         0.293415
 C        -1.198147         1.940951         0.019928
 O        -2.769576        -0.252497        -0.463302
 C        -1.780348        -0.625608         0.499793
 H         1.163240         0.995994         0.252751
 H        -0.510796        -0.004740         2.665899
 H        -1.163613         1.703389         2.493065
 H        -3.122345        -0.749048         2.275663
 H        -4.469095         0.720363         0.599628
 H        -3.284050         2.550210        -0.554821
 H        -3.026035         2.774292         1.157728
 H        -1.061803         1.765601        -1.067116
 H        -0.643641         2.824696         0.308698
 H        -1.432329        -1.713502         0.466576
