19
Iteration:   704
 O         0.638017         0.356695         0.442398
 C        -0.751799         0.541195         0.829669
 C        -1.331876         0.784274         2.305710
 C        -2.607058         0.052422         1.724439
 C        -3.274445         0.739222         0.448505
 C        -2.737710         2.041672         0.195643
 C        -1.217566         1.894655         0.141161
 O        -2.692125        -0.285392        -0.506849
 C        -1.812628        -0.642929         0.648476
 H         0.586005        -0.146605        -0.491000
 H        -0.965780         0.210482         3.121967
 H        -1.351979         1.853357         2.558275
 H        -3.433543        -0.434476         2.428232
 H        -4.297565         0.622545         0.500571
 H        -3.154720         2.664989        -0.750163
 H        -3.103936         2.562546         1.112504
 H        -0.762678         1.888551        -0.843486
 H        -0.735496         2.678923         0.669821
 H        -1.484667        -1.651311         0.635846
