19
Iteration:  2764
 O         0.605826         0.230060         0.619090
 C        -0.738963         0.654862         0.773828
 C        -1.262927         0.616702         2.248508
 C        -2.515657        -0.019241         1.667061
 C        -3.368409         0.759901         0.618955
 C        -2.755686         2.067468         0.187154
 C        -1.199309         1.925948         0.023267
 O        -2.819459        -0.291471        -0.441409
 C        -1.765283        -0.463870         0.438497
 H         1.368686         0.940669         0.786019
 H        -0.597210        -0.196288         2.708841
 H        -1.550982         1.570341         2.793627
 H        -3.020505        -0.732257         2.240533
 H        -4.478123         0.577515         0.613602
 H        -3.293689         2.463285        -0.772713
 H        -3.041662         2.835253         0.977886
 H        -1.057060         1.856449        -1.100810
 H        -0.726210         2.917219         0.511960
 H        -1.286924        -1.440633         0.347950
