19
Iteration:   961charge 0 multiplicity 1
 O         0.592035         0.236405         0.670195
 C        -0.770690         0.689808         0.742813
 C        -1.247507         0.701391         2.167495
 C        -2.566986        -0.016296         1.683212
 C        -3.359914         0.679725         0.556221
 C        -2.700175         2.094526         0.252744
 C        -1.196452         1.938076         0.030174
 O        -2.858645        -0.288374        -0.481316
 C        -1.703255        -0.566812         0.504397
 H         1.060613         1.027121         0.413956
 H        -0.591543         0.114726         2.790666
 H        -1.460840         1.544528         2.778879
 H        -3.096773        -0.681139         2.441860
 H        -4.499420         0.596152         0.446774
 H        -3.243993         2.533204        -0.697919
 H        -2.894337         2.807387         1.160559
 H        -0.931385         1.758716        -1.021652
 H        -0.672440         2.809385         0.352734
 H        -1.242564        -1.613992         0.504148
