19
Iteration:  4176
 O         0.685690         0.325039         0.688168
 C        -0.742808         0.649306         0.781626
 C        -1.284008         0.588317         2.259207
 C        -2.490721        -0.034158         1.658464
 C        -3.339212         0.736232         0.515088
 C        -2.793244         2.099328         0.210509
 C        -1.234130         1.917548         0.050968
 O        -2.821634        -0.190497        -0.439803
 C        -1.815142        -0.543807         0.475591
 H         0.777372        -0.200233        -0.054533
 H        -0.681658        -0.137784         2.872495
 H        -1.220415         1.559312         2.755505
 H        -3.141618        -0.727616         2.207079
 H        -4.430153         0.594146         0.632112
 H        -3.011440         2.472016        -0.836386
 H        -3.137519         2.654390         1.090280
 H        -1.022788         1.710686        -1.036163
 H        -0.631505         2.817303         0.291765
 H        -1.308569        -1.523919         0.132064
