19
Iteration:  4292
 O         0.576575         0.279550         0.446804
 C        -0.735996         0.619567         0.873552
 C        -1.383758         0.644222         2.352340
 C        -2.506010        -0.078526         1.679839
 C        -3.313189         0.765910         0.580848
 C        -2.732822         2.063077         0.189788
 C        -1.198620         1.918244        -0.017716
 O        -2.794952        -0.189564        -0.431902
 C        -1.734731        -0.561127         0.504571
 H         1.243301         0.754169         0.819561
 H        -0.999516        -0.080441         3.099281
 H        -1.527128         1.683939         2.671391
 H        -3.123560        -0.800695         2.191313
 H        -4.433854         0.747747         0.761954
 H        -3.101357         2.143253        -0.824787
 H        -2.907392         2.934982         0.868991
 H        -0.859593         1.677949        -1.046903
 H        -0.657046         2.839891         0.393254
 H        -1.255459        -1.481900         0.302545
