19
Iteration:  3423
 O         0.636124         0.163870         0.561991
 C        -0.727844         0.617178         0.726076
 C        -1.297621         0.747178         2.191482
 C        -2.585064         0.009350         1.732597
 C        -3.397524         0.751251         0.491889
 C        -2.815564         2.113386         0.325753
 C        -1.202263         1.929512         0.088204
 O        -2.718466        -0.262671        -0.479614
 C        -1.740015        -0.569590         0.465568
 H         1.143604         0.904943         0.756193
 H        -0.827200        -0.020579         2.861616
 H        -1.319857         1.721542         2.654701
 H        -3.047570        -0.688396         2.386070
 H        -4.522209         0.641186         0.507275
 H        -3.181553         2.559791        -0.590727
 H        -3.187825         2.682053         1.234132
 H        -0.957529         1.686292        -0.990096
 H        -0.724746         2.810845         0.654702
 H        -1.240301        -1.585831         0.379654
