19
Iteration:  2035
 O         0.671042         0.378364         0.563108
 C        -0.717593         0.605217         0.835478
 C        -1.169108         0.637918         2.308143
 C        -2.602113         0.120920         1.691866
 C        -3.318676         0.728228         0.448797
 C        -2.779425         2.088529         0.178228
 C        -1.248284         1.954228         0.117623
 O        -2.753563        -0.334839        -0.474510
 C        -1.898444        -0.642861         0.562428
 H         0.655208         0.305160        -0.349817
 H        -0.869475        -0.337877         2.733237
 H        -1.042515         1.427418         2.953226
 H        -3.094763        -0.465756         2.528872
 H        -4.435361         0.701540         0.469769
 H        -3.096640         2.494329        -0.840726
 H        -3.088129         2.673413         1.052371
 H        -1.074167         1.795801        -1.027725
 H        -0.702178         2.819266         0.444871
 H        -1.498652        -1.696502         0.348890
