19
Iteration:  2272charge 0 multiplicity 1
 O         0.648842         0.403536         0.695652
 C        -0.734743         0.648990         0.767185
 C        -1.266476         0.611213         2.199997
 C        -2.544177         0.026849         1.707682
 C        -3.244124         0.710504         0.506398
 C        -2.765281         2.111180         0.244855
 C        -1.250195         1.898729        -0.040670
 O        -2.853894        -0.291734        -0.472705
 C        -1.790084        -0.587988         0.514353
 H         0.821192         0.128852        -0.335502
 H        -0.741213        -0.268167         2.654824
 H        -1.215175         1.548438         2.805801
 H        -3.077635        -0.668833         2.469492
 H        -4.305314         0.707119         0.746513
 H        -3.538945         2.673480        -0.393058
 H        -2.769735         2.540518         1.331816
 H        -1.067886         1.892883        -1.080649
 H        -0.484685         2.604062         0.347061
 H        -1.573416        -1.659038         0.526895
