19
Iteration:  1428charge 0 multiplicity 1
 O         0.521265         0.239064         0.603169
 C        -0.751654         0.647076         0.818962
 C        -1.333527         0.674748         2.193964
 C        -2.510808        -0.044770         1.663081
 C        -3.291083         0.729227         0.534257
 C        -2.714706         2.114023         0.202835
 C        -1.198279         1.977203         0.125640
 O        -2.739767        -0.268348        -0.438342
 C        -1.743133        -0.519578         0.502675
 H         0.566012        -0.193281        -0.362815
 H        -0.980804        -0.069074         2.982993
 H        -1.344284         1.743301         2.789729
 H        -3.104776        -0.775483         2.248001
 H        -4.408196         0.649078         0.568658
 H        -3.175625         2.301444        -0.781603
 H        -3.040594         2.900904         0.881737
 H        -0.865832         1.994288        -0.967370
 H        -0.761051         2.794298         0.736141
 H        -1.242458        -1.494756         0.212778
