19
Iteration:  2811charge 0 multiplicity 1
 O         0.665626         0.407857         0.510288
 C        -0.776496         0.577325         0.744486
 C        -1.396137         0.682468         2.253887
 C        -2.596479        -0.075996         1.731997
 C        -3.316854         0.717037         0.563397
 C        -2.638470         2.180645         0.363246
 C        -1.215906         1.741014        -0.070889
 O        -2.804332        -0.207741        -0.488173
 C        -1.742573        -0.633319         0.529643
 H         1.057256         1.188474         1.054238
 H        -0.936429        -0.093204         2.949482
 H        -1.645109         1.745591         2.589106
 H        -3.249134        -0.844155         2.324805
 H        -4.414943         0.768479         0.555573
 H        -3.071476         2.809074        -0.444666
 H        -2.749217         2.834494         1.318971
 H        -1.084826         1.417583        -1.134709
 H        -0.571742         2.634714         0.210089
 H        -1.293696        -1.619282         0.264706
