19
Iteration:   936charge 0 multiplicity 1
 O         0.713210         0.373409         0.608029
 C        -0.773871         0.576217         0.782767
 C        -1.416659         0.713076         2.272724
 C        -2.561284        -0.048505         1.651839
 C        -3.337784         0.769625         0.566461
 C        -2.633633         2.070623         0.388587
 C        -1.242349         1.710944        -0.140526
 O        -2.791597        -0.173578        -0.462182
 C        -1.756753        -0.611663         0.469114
 H         0.915925         1.396859         0.641795
 H        -0.844007         0.285216         3.132478
 H        -1.733163         1.745837         2.635671
 H        -3.305137        -0.671872         2.419721
 H        -4.436634         0.650881         0.480511
 H        -3.221925         2.676693        -0.353717
 H        -2.599082         2.568671         1.300344
 H        -1.254842         1.236340        -1.208674
 H        -0.629812         2.630710        -0.097766
 H        -1.338390        -1.567493         0.260316
