19
Iteration:  3327
 O         0.580032         0.298316         0.514398
 C        -0.755410         0.582331         0.769350
 C        -1.356074         0.674494         2.268687
 C        -2.568999        -0.060194         1.674338
 C        -3.355969         0.765343         0.463256
 C        -2.659596         2.048491         0.256740
 C        -1.199238         1.894385         0.094835
 O        -2.799324        -0.222749        -0.484021
 C        -1.734472        -0.578702         0.559566
 H         1.320299         0.981299         0.688942
 H        -0.672324        -0.012734         2.860682
 H        -1.395917         1.741140         2.727789
 H        -3.195906        -0.662544         2.359750
 H        -4.450721         0.933445         0.492587
 H        -3.166704         2.541442        -0.589577
 H        -2.761486         2.699551         1.184635
 H        -1.116256         1.919421        -0.973751
 H        -0.674572         2.630129         0.650129
 H        -1.199957        -1.584547         0.500762
