19
Iteration:  2740charge 0 multiplicity 1
 O         0.535755         0.196797         0.496827
 C        -0.781386         0.656684         0.779826
 C        -1.358847         0.747822         2.296556
 C        -2.529876        -0.137225         1.748104
 C        -3.275006         0.638297         0.563438
 C        -2.683958         2.076397         0.193287
 C        -1.164072         1.987597         0.086512
 O        -2.827328        -0.211913        -0.463107
 C        -1.721297        -0.531553         0.475703
 H         1.258573         0.847051         0.598748
 H        -0.653692         0.162161         2.935792
 H        -1.654977         1.769847         2.633732
 H        -3.119333        -0.600051         2.512420
 H        -4.378932         0.447922         0.571438
 H        -3.109520         2.333642        -0.843381
 H        -3.046558         2.909201         0.825902
 H        -0.982031         2.009127        -1.011053
 H        -0.631993         2.901155         0.712305
 H        -1.221862        -1.487065         0.237898
