19
Iteration:   722charge 0 multiplicity 1
 O         0.627200         0.283746         0.577094
 C        -0.715954         0.577015         0.794221
 C        -1.219940         0.701287         2.224084
 C        -2.586107         0.135961         1.684282
 C        -3.375081         0.666789         0.439637
 C        -2.845759         2.116934         0.184865
 C        -1.263083         1.907077         0.114067
 O        -2.677516        -0.271379        -0.433922
 C        -1.766143        -0.544395         0.581636
 H         0.649256        -0.457593        -0.163766
 H        -0.818897        -0.158079         2.843377
 H        -1.250914         1.701166         2.758382
 H        -3.122612        -0.442942         2.368706
 H        -4.493388         0.575032         0.360130
 H        -3.167893         2.426445        -0.722265
 H        -2.975027         2.878737         0.977327
 H        -1.030221         1.844206        -0.934492
 H        -0.740735         2.674761         0.737380
 H        -1.349588        -1.646497         0.649108
