19
Iteration:  3904charge 0 multiplicity 1
 O         0.646961         0.198631         0.508836
 C        -0.712179         0.608162         0.797727
 C        -1.307324         0.719482         2.313628
 C        -2.603345        -0.034989         1.671498
 C        -3.334598         0.722038         0.469354
 C        -2.778648         2.109757         0.310535
 C        -1.281615         1.835600        -0.026783
 O        -2.700888        -0.194369        -0.463247
 C        -1.768425        -0.537311         0.555474
 H         1.277403         0.978529         0.726726
 H        -0.974095        -0.072277         3.065482
 H        -1.344933         1.761835         2.771876
 H        -3.240579        -0.676550         2.257956
 H        -4.394833         0.845179         0.310810
 H        -3.419277         2.716144        -0.468035
 H        -2.966730         2.769211         1.192244
 H        -1.112197         1.721874        -1.101245
 H        -0.593257         2.686082         0.269123
 H        -1.306574        -1.562567         0.580014
