19
Iteration:  3571
 O         0.558503         0.302433         0.462046
 C        -0.711233         0.642378         0.835721
 C        -1.345875         0.592128         2.358836
 C        -2.549613         0.034257         1.677320
 C        -3.310932         0.764785         0.588913
 C        -2.693008         2.114253         0.163936
 C        -1.216365         1.838708         0.064746
 O        -2.774425        -0.263935        -0.450986
 C        -1.775858        -0.598642         0.501555
 H         1.139412         1.181988         0.549201
 H        -0.893712        -0.116335         3.071182
 H        -1.464799         1.612117         2.864998
 H        -3.153995        -0.715675         2.266678
 H        -4.357056         0.592005         0.488605
 H        -3.036057         2.583287        -0.795677
 H        -2.922334         2.960195         0.821824
 H        -1.018270         1.756645        -1.041119
 H        -0.670361         2.740548         0.402105
 H        -1.310088        -1.555205         0.338456
