19
Iteration:  3402
 O         0.546684         0.222330         0.606366
 C        -0.768341         0.627872         0.796580
 C        -1.323221         0.757826         2.257147
 C        -2.534227        -0.125417         1.708549
 C        -3.268767         0.718805         0.563302
 C        -2.656506         2.073042         0.298638
 C        -1.207049         1.926013        -0.047312
 O        -2.829691        -0.196515        -0.497038
 C        -1.730153        -0.573818         0.394315
 H         1.183366         0.885997         0.974211
 H        -0.734226         0.160373         2.993922
 H        -1.836395         1.615384         2.687124
 H        -3.180954        -0.747141         2.313595
 H        -4.361869         0.670011         0.795001
 H        -3.264684         2.514920        -0.486553
 H        -2.812389         2.814276         1.139379
 H        -1.052979         1.730754        -1.162325
 H        -0.795341         2.925513         0.350965
 H        -1.132752        -1.525297         0.420376
