19
Iteration:  2747
 O         0.545812         0.173701         0.528291
 C        -0.745565         0.713457         0.793677
 C        -1.334286         0.728995         2.286308
 C        -2.544949        -0.153928         1.694726
 C        -3.261825         0.670758         0.567201
 C        -2.740850         2.063010         0.186213
 C        -1.191584         2.029839         0.071555
 O        -2.843608        -0.216496        -0.461566
 C        -1.716579        -0.557192         0.481641
 H         1.299270         0.911198         0.618145
 H        -0.787729         0.074422         2.925005
 H        -1.415359         1.737107         2.650089
 H        -3.260824        -0.692228         2.489100
 H        -4.339660         0.668850         0.792579
 H        -3.085694         2.090948        -0.794743
 H        -2.901057         2.817928         0.939417
 H        -0.804050         2.075680        -0.941062
 H        -0.666997         2.907953         0.365667
 H        -1.226866        -1.537793         0.345738
