19
Iteration:  3901
 O         0.634870         0.202492         0.491165
 C        -0.718315         0.596101         0.809512
 C        -1.298874         0.734136         2.318839
 C        -2.602630        -0.032482         1.646056
 C        -3.344721         0.741944         0.461303
 C        -2.753216         2.117778         0.317768
 C        -1.270295         1.840281        -0.008623
 O        -2.693791        -0.218092        -0.458704
 C        -1.790158        -0.525100         0.556968
 H         1.263711         0.966821         0.766856
 H        -0.985131         0.029313         3.129859
 H        -1.329450         1.689645         2.800225
 H        -3.192059        -0.687418         2.245995
 H        -4.397781         0.723330         0.269233
 H        -3.482978         2.561567        -0.404474
 H        -2.946640         2.739919         1.158355
 H        -1.136439         1.655415        -1.123868
 H        -0.616135         2.693724         0.338130
 H        -1.267332        -1.484420         0.509222
