19
Iteration:  3180
 O         0.648476         0.131817         0.610131
 C        -0.726561         0.642827         0.766142
 C        -1.288533         0.786905         2.244451
 C        -2.520939        -0.026556         1.673462
 C        -3.330953         0.669280         0.560794
 C        -2.749199         2.047181         0.262375
 C        -1.263040         1.973004         0.076029
 O        -2.802652        -0.182954        -0.517565
 C        -1.801744        -0.568844         0.446862
 H         1.296698         0.759195         0.721022
 H        -0.779889         0.098324         2.926142
 H        -1.338297         1.680193         2.827850
 H        -3.098544        -0.660711         2.322421
 H        -4.420929         0.661770         0.302823
 H        -3.026770         2.496729        -0.716123
 H        -3.217496         2.572035         1.095624
 H        -0.980695         2.063721        -0.991144
 H        -0.781915         2.730254         0.693261
 H        -1.389083        -1.558910         0.408054
