19
Iteration:  1753charge 0 multiplicity 1
 O         0.506723         0.216351         0.566076
 C        -0.773767         0.664594         0.772400
 C        -1.309118         0.710385         2.240363
 C        -2.529906        -0.093516         1.712927
 C        -3.297116         0.730276         0.559621
 C        -2.703056         2.074116         0.216484
 C        -1.123389         2.011990         0.190369
 O        -2.825410        -0.317710        -0.452257
 C        -1.763577        -0.550902         0.373443
 H         1.189744         0.965199         0.390730
 H        -0.700589         0.024295         2.925972
 H        -1.509238         1.723154         2.696778
 H        -3.244976        -0.735871         2.258388
 H        -4.406319         0.743006         0.528698
 H        -2.936412         2.349552        -0.899141
 H        -3.153043         2.899234         0.806872
 H        -0.711640         2.148794        -0.930294
 H        -0.546954         2.809522         0.869056
 H        -1.263434        -1.562885         0.182599
