19
Iteration:    52charge 0 multiplicity 1
 O         0.690290         0.529623         0.737308
 C        -0.732342         0.630561         0.752537
 C        -1.249129         0.658802         2.178437
 C        -2.632413        -0.019033         1.715791
 C        -3.342244         0.765479         0.567618
 C        -2.639979         1.982587         0.289606
 C        -1.184865         1.769332        -0.153739
 O        -2.919351        -0.270733        -0.463858
 C        -1.818727        -0.549193         0.459957
 H         0.993836        -0.365610         1.224834
 H        -0.757455        -0.234462         2.737934
 H        -1.277719         1.684539         2.663560
 H        -3.330197        -0.566223         2.382181
 H        -4.418463         0.904734         0.565449
 H        -3.165493         2.600428        -0.454134
 H        -2.638726         2.660433         1.250988
 H        -1.042987         1.517373        -1.195466
 H        -0.608176         2.702177        -0.047534
 H        -1.271275        -1.582753         0.211333
