19
Iteration:  2862
 O         0.592729         0.138758         0.648102
 C        -0.739367         0.673766         0.738646
 C        -1.217169         0.696709         2.202088
 C        -2.521395        -0.073567         1.695203
 C        -3.346607         0.686656         0.555272
 C        -2.827113         2.083532         0.217753
 C        -1.245428         1.989984         0.067124
 O        -2.763854        -0.192737        -0.411199
 C        -1.740969        -0.559091         0.446033
 H         1.301135         0.892156         0.564906
 H        -0.683791        -0.123724         2.685357
 H        -1.313987         1.709218         2.491970
 H        -3.264912        -0.502467         2.262629
 H        -4.465007         0.779930         0.526667
 H        -3.286258         2.345171        -0.794952
 H        -3.196411         2.743562         0.974061
 H        -0.824133         2.037096        -0.958268
 H        -0.759342         2.924372         0.542556
 H        -1.486644        -1.610056         0.290785
