19
Iteration:   727
 O         0.637724         0.265430         0.611141
 C        -0.747383         0.603877         0.749796
 C        -1.200645         0.693956         2.239020
 C        -2.583800         0.095459         1.697369
 C        -3.380100         0.702993         0.446844
 C        -2.849384         2.099469         0.212022
 C        -1.254323         1.905223         0.088635
 O        -2.709374        -0.275719        -0.445214
 C        -1.747523        -0.515996         0.591070
 H         0.735215        -0.384756        -0.015664
 H        -0.823467        -0.119745         2.816058
 H        -1.164744         1.595833         2.822117
 H        -3.305713        -0.496691         2.425258
 H        -4.427047         0.440953         0.424524
 H        -3.156762         2.422383        -0.918667
 H        -3.137769         2.890953         0.928116
 H        -0.903102         1.867152        -0.973599
 H        -0.623547         2.679765         0.511438
 H        -1.260600        -1.430685         0.469718
