19
Iteration:   135
 O         0.642330         0.239117         0.507314
 C        -0.803657         0.598130         0.811389
 C        -1.277561         0.611554         2.298751
 C        -2.606126         0.036242         1.791484
 C        -3.252312         0.721552         0.449734
 C        -2.757727         2.157083         0.092155
 C        -1.229706         1.934909         0.139522
 O        -2.751695        -0.310904        -0.435091
 C        -1.765902        -0.554684         0.528115
 H         0.894290         0.999920        -0.038802
 H        -0.774951         0.067145         3.007192
 H        -1.304826         1.578497         2.757063
 H        -3.367128        -0.565435         2.343996
 H        -4.402817         0.744084         0.443478
 H        -3.236079         2.713988        -0.804169
 H        -2.982927         2.649625         0.923435
 H        -0.878448         1.892233        -0.988461
 H        -0.904689         2.795594         0.751898
 H        -1.347395        -1.478719         0.551590
