19
Iteration:  4707charge 0 multiplicity 1
 O         0.620660         0.288213         0.648071
 C        -0.705567         0.633839         0.837272
 C        -1.305312         0.682474         2.230015
 C        -2.598831        -0.037153         1.720174
 C        -3.393043         0.701482         0.537158
 C        -2.666055         2.055372         0.198665
 C        -1.082587         1.898640         0.133990
 O        -2.888243        -0.288449        -0.548350
 C        -1.750847        -0.463301         0.431214
 H         0.742617         0.624372        -0.245473
 H        -0.626794         0.083183         2.909693
 H        -1.681886         1.592204         2.782486
 H        -3.050421        -0.817606         2.413503
 H        -4.494311         0.764953         0.712944
 H        -3.067022         2.426175        -0.769486
 H        -2.965446         2.685433         1.069914
 H        -0.868841         2.133271        -1.028606
 H        -0.546190         2.659678         0.795435
 H        -1.508188        -1.492084         0.140372
