19
Iteration:   957charge 0 multiplicity 1
 O         0.593138         0.268254         0.666713
 C        -0.728751         0.679721         0.752572
 C        -1.270087         0.727968         2.181520
 C        -2.583583        -0.028794         1.698159
 C        -3.334958         0.655029         0.553893
 C        -2.698473         2.100474         0.276014
 C        -1.196836         1.907234        -0.005850
 O        -2.851165        -0.274135        -0.492058
 C        -1.743342        -0.576813         0.484056
 H         1.151917         1.065086         0.443187
 H        -0.632371         0.052839         2.832936
 H        -1.490408         1.701072         2.756676
 H        -3.149682        -0.767935         2.459618
 H        -4.437343         0.695980         0.526923
 H        -3.214534         2.584453        -0.540554
 H        -2.813877         2.648452         1.136428
 H        -1.050155         1.609824        -1.114703
 H        -0.600442         2.790847         0.379674
 H        -1.340356        -1.553585         0.476189
