19
Iteration:  3239
 O         0.658531         0.429111         0.590555
 C        -0.720130         0.607934         0.801011
 C        -1.363260         0.579748         2.255148
 C        -2.602155        -0.072660         1.724867
 C        -3.336596         0.780275         0.546993
 C        -2.630295         2.123944         0.280561
 C        -1.169269         1.815097        -0.070634
 O        -2.869241        -0.236750        -0.473107
 C        -1.813471        -0.586112         0.418714
 H         1.119760         1.085268         1.281235
 H        -0.814223        -0.223584         2.830228
 H        -1.348067         1.664480         2.601259
 H        -3.314046        -0.666292         2.297153
 H        -4.412692         0.602136         0.587499
 H        -3.297732         2.807719        -0.218879
 H        -2.733807         2.584409         1.322010
 H        -1.013549         1.407881        -1.067566
 H        -0.387600         2.522066         0.052563
 H        -1.183236        -1.522894         0.384768
