19
Iteration:  1661
 O         0.575618         0.263648         0.687681
 C        -0.750846         0.698172         0.744096
 C        -1.426648         0.706549         2.192713
 C        -2.568417        -0.139708         1.690324
 C        -3.267895         0.673037         0.604839
 C        -2.600694         2.148755         0.363196
 C        -1.181757         1.814577        -0.118486
 O        -2.870600        -0.221217        -0.474995
 C        -1.710966        -0.515699         0.389640
 H         1.171214         1.049303         1.076630
 H        -0.593582         0.311260         2.769969
 H        -1.739130         1.799016         2.634258
 H        -3.147897        -0.911036         2.208559
 H        -4.324773         0.640899         0.813952
 H        -3.189700         2.779811        -0.325577
 H        -2.621401         2.606541         1.389552
 H        -1.290268         1.463384        -1.158889
 H        -0.510407         2.732807         0.028886
 H        -1.326283        -1.468835         0.197641
