19
Iteration:  2843
 O         0.577935         0.181602         0.619858
 C        -0.778654         0.668372         0.750623
 C        -1.285388         0.691710         2.243206
 C        -2.517598        -0.000977         1.721641
 C        -3.312769         0.692235         0.588003
 C        -2.750168         2.092825         0.296768
 C        -1.215408         1.890218        -0.015319
 O        -2.803059        -0.240674        -0.547430
 C        -1.751340        -0.494474         0.487203
 H         1.280147         0.884579         0.712573
 H        -0.757625        -0.094651         2.914768
 H        -1.546841         1.666651         2.882103
 H        -2.951304        -0.864011         2.303715
 H        -4.393712         0.494965         0.645200
 H        -3.162377         2.548481        -0.635376
 H        -2.941964         2.729476         1.231061
 H        -0.961346         1.810802        -1.125472
 H        -0.835248         3.006428         0.211983
 H        -1.170370        -1.406131         0.268437
