19
Iteration:  4118
 O         0.598714         0.336834         0.626453
 C        -0.746512         0.613642         0.816184
 C        -1.351423         0.633356         2.332311
 C        -2.563514        -0.108328         1.706482
 C        -3.300624         0.753266         0.555786
 C        -2.693421         2.125767         0.255809
 C        -1.198438         1.845167        -0.069940
 O        -2.789712        -0.200086        -0.505444
 C        -1.794540        -0.614882         0.495540
 H         0.927433         0.786014        -0.262285
 H        -0.732774         0.002074         3.032460
 H        -1.339920         1.707300         2.662552
 H        -3.227082        -0.737684         2.276313
 H        -4.435875         0.739330         0.752420
 H        -3.097391         2.786516        -0.472083
 H        -2.785072         2.878660         1.084577
 H        -0.974236         1.762712        -1.150148
 H        -0.692097         2.680732         0.305383
 H        -1.182654        -1.458848         0.169784
