19
Iteration:  4730
 O         0.585448         0.213281         0.677420
 C        -0.769302         0.603432         0.779758
 C        -1.290573         0.612795         2.192288
 C        -2.611808        -0.011479         1.688768
 C        -3.216622         0.696526         0.514387
 C        -2.788564         2.166427         0.270233
 C        -1.256481         1.989580         0.064579
 O        -2.732411        -0.178182        -0.480596
 C        -1.736217        -0.602260         0.506686
 H         1.052897         0.273509        -0.196755
 H        -0.818480        -0.038888         3.032620
 H        -1.419000         1.676161         2.573980
 H        -3.113070        -0.814808         2.315971
 H        -4.327597         0.660810         0.399840
 H        -3.230407         2.418185        -0.726974
 H        -2.933718         2.918550         1.107157
 H        -1.187022         1.880533        -1.120073
 H        -0.651548         2.918389         0.430347
 H        -1.359348        -1.599130         0.278746
