19
Iteration:   578charge 0 multiplicity 1
 O         0.620775         0.267671         0.538011
 C        -0.748253         0.613190         0.788417
 C        -1.330589         0.681081         2.290441
 C        -2.619895         0.084286         1.703307
 C        -3.323518         0.722123         0.457000
 C        -2.747501         2.115888         0.156299
 C        -1.247368         1.947317         0.071106
 O        -2.673779        -0.310183        -0.447140
 C        -1.761641        -0.550737         0.624796
 H         0.743588        -0.310844        -0.303713
 H        -0.994086        -0.227320         2.971157
 H        -1.191372         1.637863         2.911279
 H        -3.124366        -0.544653         2.355970
 H        -4.461452         0.619948         0.317663
 H        -3.230055         2.523756        -0.709482
 H        -3.107854         2.759438         1.120554
 H        -0.891197         1.973676        -0.991919
 H        -0.725188         2.816232         0.577626
 H        -1.195540        -1.607120         0.637822
