19
Iteration:  2611
 O         0.592144         0.239264         0.606635
 C        -0.789146         0.652902         0.776339
 C        -1.218373         0.656196         2.209830
 C        -2.612677         0.078598         1.735203
 C        -3.322055         0.717028         0.519516
 C        -2.765623         2.111084         0.237111
 C        -1.234506         1.943134         0.066286
 O        -2.751271        -0.334586        -0.481123
 C        -1.754008        -0.576148         0.499617
 H         1.055673         0.792011        -0.126406
 H        -0.695079        -0.076006         2.884413
 H        -1.081929         1.608098         2.782232
 H        -3.204219        -0.452656         2.396284
 H        -4.397667         0.571947         0.610913
 H        -3.274893         2.533339        -0.674184
 H        -2.861011         2.647226         1.217373
 H        -0.963935         1.840631        -1.014685
 H        -0.799785         2.910011         0.531159
 H        -1.251744        -1.533635         0.295565
