19
Iteration:  2073charge 0 multiplicity 1
 O         0.613846         0.358737         0.700690
 C        -0.767691         0.647994         0.779084
 C        -1.352342         0.751224         2.168138
 C        -2.481529        -0.132133         1.678550
 C        -3.361241         0.738800         0.672941
 C        -2.644590         2.070185         0.259259
 C        -1.176190         1.807888        -0.052002
 O        -2.854197        -0.223332        -0.391522
 C        -1.783922        -0.601395         0.373972
 H         1.123384         1.041608         0.113080
 H        -0.842187         0.040696         2.845627
 H        -1.442820         1.809994         2.775095
 H        -3.048996        -0.779434         2.297285
 H        -4.433706         0.825548         0.616830
 H        -3.237915         2.198525        -0.699989
 H        -2.986100         2.993568         0.790288
 H        -1.095947         1.512071        -1.044716
 H        -0.431780         2.637012         0.128533
 H        -1.325014        -1.523462         0.119183
