19
Iteration:  3959charge 0 multiplicity 1
 O         0.733328         0.405609         0.723685
 C        -0.698724         0.650676         0.811938
 C        -1.347093         0.633129         2.210203
 C        -2.519597        -0.099547         1.640722
 C        -3.342138         0.694644         0.599587
 C        -2.670346         2.120114         0.226776
 C        -1.121569         1.860836        -0.005479
 O        -2.988764        -0.264030        -0.429596
 C        -1.859989        -0.583237         0.407439
 H         0.962292         0.549796        -0.201272
 H        -0.936986        -0.101464         2.958755
 H        -1.714228         1.622201         2.639415
 H        -3.210078        -0.533569         2.369690
 H        -4.398345         0.869158         0.658521
 H        -3.221452         2.495124        -0.728861
 H        -2.601127         2.870467         1.031912
 H        -0.838880         1.649207        -1.052208
 H        -0.423487         2.757846         0.195384
 H        -1.195269        -1.449761         0.175236
