19
Iteration:  4994
 O         0.566189         0.277720         0.639940
 C        -0.775827         0.601923         0.826394
 C        -1.217850         0.637497         2.326553
 C        -2.559351         0.021961         1.644958
 C        -3.300343         0.693784         0.473946
 C        -2.772876         2.156311         0.299373
 C        -1.223515         1.926059         0.060972
 O        -2.684483        -0.200088        -0.565518
 C        -1.848912        -0.577746         0.494252
 H         0.572468         0.203484        -0.324707
 H        -0.737636        -0.169295         2.912413
 H        -1.306793         1.583441         2.800396
 H        -2.972543        -0.554500         2.445128
 H        -4.343753         0.422556         0.378911
 H        -3.217617         2.555074        -0.582915
 H        -3.086409         2.657732         1.205131
 H        -1.082335         1.705397        -1.043199
 H        -0.461663         2.725302         0.520227
 H        -1.459228        -1.567863         0.418643
