19
Iteration:   299charge 0 multiplicity 1
 O         0.656412         0.244165         0.568237
 C        -0.771202         0.647729         0.780073
 C        -1.282339         0.697145         2.259565
 C        -2.579540        -0.037641         1.715573
 C        -3.373814         0.731342         0.612157
 C        -2.757300         2.117661         0.138842
 C        -1.206651         1.898642         0.022219
 O        -2.790817        -0.273415        -0.431658
 C        -1.727413        -0.513686         0.458320
 H         0.998919         0.596837         1.332982
 H        -0.773732         0.009007         2.877255
 H        -1.362477         1.568034         2.881179
 H        -3.154795        -0.762879         2.377957
 H        -4.509782         0.624562         0.651046
 H        -3.152063         2.204121        -0.955353
 H        -3.031767         3.091826         0.527633
 H        -0.883700         1.679153        -1.008096
 H        -0.746429         2.697589         0.354858
 H        -1.228906        -1.420318         0.368615
