19
Iteration:  2827charge 0 multiplicity 1
 O         0.575505         0.288953         0.539056
 C        -0.714031         0.668563         0.853170
 C        -1.357786         0.697736         2.255206
 C        -2.579590        -0.115799         1.644121
 C        -3.324516         0.720798         0.524953
 C        -2.676726         2.048447         0.320064
 C        -1.211139         1.868217        -0.042604
 O        -2.802177        -0.203196        -0.432591
 C        -1.734953        -0.555687         0.443688
 H         1.218101         1.053187         0.889115
 H        -0.708491         0.284072         2.976954
 H        -1.382539         1.629136         2.754541
 H        -3.218510        -0.640298         2.338957
 H        -4.421901         0.819695         0.548050
 H        -3.308509         2.627061        -0.359488
 H        -2.696748         2.628735         1.206149
 H        -1.279685         1.490395        -1.049609
 H        -0.464015         2.618140         0.086393
 H        -1.303700        -1.558285         0.353809
