19
Iteration:   641
 O         0.702451         0.333118         0.951912
 C        -0.706865         0.571198         0.730551
 C        -1.206075         0.728688         2.057994
 C        -2.509977        -0.034165         1.700692
 C        -3.395912         0.719824         0.609525
 C        -2.786672         2.051495         0.207733
 C        -1.251311         1.780453        -0.095104
 O        -2.878942        -0.165460        -0.468334
 C        -1.807715        -0.574930         0.439056
 H         1.271310         0.981096         0.364627
 H        -0.819421        -0.007917         2.723771
 H        -1.047545         1.642466         2.570554
 H        -2.973300        -0.671787         2.474646
 H        -4.524731         0.794445         0.806946
 H        -3.311285         2.476604        -0.679802
 H        -2.906919         2.829163         0.872719
 H        -1.282144         1.528358        -1.213685
 H        -0.594384         2.655555        -0.214908
 H        -1.390224        -1.507149         0.202556
