19
Iteration:   744charge 0 multiplicity 1
 O         0.635586         0.293807         0.733713
 C        -0.739225         0.699116         0.807963
 C        -1.269070         0.652847         2.256819
 C        -2.550063        -0.038209         1.757727
 C        -3.306414         0.701615         0.578072
 C        -2.751620         2.055850         0.114425
 C        -1.198882         1.950571        -0.061138
 O        -2.836257        -0.253921        -0.468786
 C        -1.781578        -0.517400         0.452429
 H         0.693689        -0.215121        -0.024710
 H        -0.564050        -0.094786         2.712262
 H        -1.287649         1.648736         2.802507
 H        -3.092113        -0.687844         2.372903
 H        -4.402784         0.856708         0.643884
 H        -3.230919         2.323589        -0.735776
 H        -2.973093         2.770970         0.943498
 H        -1.102788         1.698060        -1.103170
 H        -0.735089         2.902907         0.281495
 H        -1.306426        -1.574186         0.436509
