19
Iteration:   422
 O         0.611858         0.278600         0.577674
 C        -0.710242         0.733941         0.828963
 C        -1.285678         0.717036         2.231529
 C        -2.559978        -0.015517         1.707116
 C        -3.312960         0.660571         0.489341
 C        -2.750498         2.046116         0.125606
 C        -1.028447         2.121374         0.177877
 O        -2.885127        -0.406212        -0.458959
 C        -1.834627        -0.545028         0.520300
 H         0.546107        -0.447268         0.035558
 H        -0.787554        -0.028191         2.805975
 H        -1.462887         1.730869         2.553159
 H        -3.116234        -0.660725         2.415988
 H        -4.468810         0.632684         0.403517
 H        -3.234434         2.119928        -0.935871
 H        -3.152094         2.796404         0.806110
 H        -0.540760         2.167114        -0.778847
 H        -0.723138         2.899062         0.763896
 H        -1.272497        -1.473363         0.502209
