19
Iteration:  4482charge 0 multiplicity 1
 O         0.597800         0.250971         0.746632
 C        -0.729752         0.678404         0.782767
 C        -1.229513         0.677542         2.192307
 C        -2.549396        -0.092341         1.717048
 C        -3.353733         0.662136         0.546687
 C        -2.802270         2.104192         0.262268
 C        -1.180711         1.869035        -0.037211
 O        -2.755906        -0.123300        -0.487100
 C        -1.763895        -0.502387         0.453574
 H         0.789165        -0.132520        -0.110890
 H        -0.740677        -0.122481         2.805957
 H        -1.310219         1.648691         2.751915
 H        -3.338503        -0.659410         2.263128
 H        -4.474509         0.663882         0.527353
 H        -3.445061         2.351969        -0.560884
 H        -3.062649         2.750902         1.129933
 H        -1.065267         1.760625        -1.186100
 H        -0.580453         2.768977         0.309435
 H        -1.300751        -1.510386         0.352421
