19
Iteration:    21charge 0 multiplicity 1
 O         0.655621         0.531631         0.668791
 C        -0.771848         0.564769         0.790911
 C        -1.418752         0.680212         2.225376
 C        -2.586614        -0.136915         1.686094
 C        -3.248609         0.828839         0.635732
 C        -2.623651         2.190542         0.326064
 C        -1.265611         1.699078        -0.208403
 O        -2.796033        -0.216218        -0.456276
 C        -1.753097        -0.640266         0.459759
 H         0.971606        -0.309512         0.806968
 H        -0.863597         0.229765         3.120404
 H        -1.702157         1.683845         2.625904
 H        -3.313923        -0.729604         2.253299
 H        -4.328938         0.816595         0.645013
 H        -3.105923         2.632657        -0.429232
 H        -2.593507         2.897765         1.203821
 H        -1.435540         1.149966        -1.040144
 H        -0.453001         2.370036        -0.325232
 H        -1.282785        -1.695163         0.190514
