19
Iteration:  4940charge 0 multiplicity 1
 O         0.582310         0.386830         0.757958
 C        -0.789385         0.652894         0.814351
 C        -1.257461         0.637933         2.221039
 C        -2.558301        -0.205389         1.693816
 C        -3.252062         0.765480         0.602890
 C        -2.613378         2.121312         0.178151
 C        -1.179379         1.854389         0.044569
 O        -2.908821        -0.194435        -0.524413
 C        -1.825892        -0.621209         0.405362
 H         0.985800         0.654032        -0.050805
 H        -0.592736         0.157915         2.961164
 H        -1.469005         1.615839         2.646687
 H        -3.057065        -0.695322         2.492717
 H        -4.324396         0.843489         0.573162
 H        -3.081502         2.494080        -0.707993
 H        -2.973239         2.650908         1.055201
 H        -1.051153         1.727605        -1.068197
 H        -0.496395         2.794574         0.235918
 H        -1.385828        -1.472251         0.047658
