19
Iteration:  4248charge 0 multiplicity 1
 O         0.679607         0.256475         0.674803
 C        -0.644503         0.609835         0.678286
 C        -1.313935         0.695820         2.189554
 C        -2.634695         0.046846         1.660729
 C        -3.357659         0.676831         0.502953
 C        -2.785817         2.066265         0.383927
 C        -1.231973         1.864188        -0.013760
 O        -2.791584        -0.245862        -0.464909
 C        -1.774214        -0.529747         0.459554
 H         1.135574         0.964958         0.294498
 H        -0.641849         0.038964         2.771735
 H        -1.493584         1.541984         2.871815
 H        -3.170887        -0.515992         2.420072
 H        -4.477153         0.750578         0.484029
 H        -3.228235         2.703995        -0.329747
 H        -2.642792         2.479845         1.387035
 H        -1.125839         1.823840        -1.105945
 H        -0.576706         2.697546         0.321437
 H        -1.448567        -1.506044         0.624903
