19
Iteration:  3594
 O         0.688551         0.253007         0.577331
 C        -0.790994         0.621427         0.757448
 C        -1.211799         0.607420         2.202211
 C        -2.595270         0.035351         1.705014
 C        -3.354491         0.686897         0.512280
 C        -2.778660         2.043242         0.169847
 C        -1.173480         1.952470         0.087375
 O        -2.809310        -0.221870        -0.429333
 C        -1.837224        -0.570808         0.528301
 H         1.135508         1.024639         0.826433
 H        -0.608487        -0.101101         2.838035
 H        -1.091139         1.664194         2.587857
 H        -3.195102        -0.635684         2.349897
 H        -4.418910         0.674218         0.663280
 H        -3.027333         2.578264        -0.793292
 H        -3.172301         2.830112         0.814317
 H        -1.003510         2.085525        -1.003736
 H        -0.734662         2.753047         0.706538
 H        -1.425161        -1.575393         0.526709
