19
Iteration:   639
 O         0.712572         0.342163         0.948143
 C        -0.702559         0.575219         0.716300
 C        -1.213690         0.724670         2.057622
 C        -2.519078        -0.034000         1.669483
 C        -3.400270         0.725236         0.622537
 C        -2.777295         2.053253         0.207329
 C        -1.244340         1.766059        -0.092099
 O        -2.877919        -0.158279        -0.459288
 C        -1.810310        -0.580434         0.454654
 H         1.221483         0.919873         0.392715
 H        -0.786855         0.029285         2.691639
 H        -1.103572         1.674443         2.521630
 H        -3.025745        -0.722563         2.474997
 H        -4.453831         0.780040         0.781630
 H        -3.391495         2.478754        -0.700496
 H        -2.913749         2.810592         0.939145
 H        -1.264820         1.484248        -1.161481
 H        -0.637102         2.619700        -0.174934
 H        -1.363909        -1.461459         0.233031
