19
Iteration:   673
 O         0.599151         0.323752         0.636654
 C        -0.755752         0.662863         0.819283
 C        -1.359449         0.706349         2.230335
 C        -2.569413        -0.073770         1.684639
 C        -3.303563         0.753139         0.544271
 C        -2.683170         2.064302         0.166855
 C        -1.161988         1.899079        -0.049557
 O        -2.814280        -0.304782        -0.410638
 C        -1.751879        -0.541484         0.565132
 H         0.837186         0.633239        -0.188634
 H        -0.901187        -0.014800         2.856218
 H        -1.444385         1.650836         2.706061
 H        -3.233834        -0.782355         2.296199
 H        -4.406457         0.837139         0.675288
 H        -3.163095         2.578604        -0.770188
 H        -2.767703         2.664129         1.028430
 H        -0.994497         1.476217        -1.089805
 H        -0.597894         2.758555         0.311866
 H        -1.238548        -1.436427         0.470279
