19
Iteration:  2271
 O         0.650300         0.413511         0.692341
 C        -0.734329         0.637675         0.761587
 C        -1.274638         0.612088         2.203619
 C        -2.549427         0.027873         1.711203
 C        -3.248538         0.711395         0.515092
 C        -2.757281         2.115046         0.257056
 C        -1.251699         1.889686        -0.045856
 O        -2.848248        -0.289632        -0.479871
 C        -1.783137        -0.598112         0.521894
 H         0.825377         0.144595        -0.333630
 H        -0.763632        -0.251134         2.632777
 H        -1.235306         1.554354         2.795298
 H        -3.066304        -0.652051         2.426029
 H        -4.300401         0.694667         0.729068
 H        -3.542047         2.715757        -0.407165
 H        -2.783590         2.593965         1.348663
 H        -1.113456         1.857437        -1.110920
 H        -0.441576         2.600365         0.345293
 H        -1.597339        -1.666419         0.518641
