19
Iteration:  2372
 O         0.721755         0.410783         0.701340
 C        -0.773214         0.616737         0.754318
 C        -1.251203         0.646219         2.286566
 C        -2.545973        -0.036939         1.770614
 C        -3.359042         0.721884         0.444026
 C        -2.716857         2.132329         0.379886
 C        -1.268291         1.826213        -0.161190
 O        -2.827293        -0.242230        -0.473530
 C        -1.811866        -0.576337         0.491666
 H         0.994084         0.535806        -0.287279
 H        -0.748717        -0.209285         2.893300
 H        -1.206380         1.525084         2.953732
 H        -3.220965        -0.717326         2.497201
 H        -4.444495         0.603758         0.233569
 H        -3.289121         2.645416        -0.419473
 H        -2.651171         2.569354         1.469695
 H        -1.318752         1.566268        -1.209034
 H        -0.672999         2.720250        -0.167434
 H        -1.408566        -1.575911         0.244250
