19
Iteration:  2279
 O         0.638411         0.348268         0.701798
 C        -0.747848         0.687399         0.774744
 C        -1.202505         0.610247         2.199455
 C        -2.522005        -0.005269         1.702660
 C        -3.279224         0.707545         0.493119
 C        -2.772976         2.064752         0.208269
 C        -1.233464         1.949227        -0.006463
 O        -2.875615        -0.302974        -0.431848
 C        -1.822224        -0.548573         0.473087
 H         0.839355         0.073464        -0.256790
 H        -0.667452        -0.138757         2.737124
 H        -1.125575         1.477530         2.858964
 H        -3.101726        -0.518123         2.377279
 H        -4.356236         0.739181         0.664892
 H        -3.467413         2.617101        -0.521106
 H        -2.834585         2.457627         1.249755
 H        -0.821062         1.929277        -1.071668
 H        -0.753351         2.905137         0.457034
 H        -1.331172        -1.533799         0.486140
