19
Iteration:  2181
 O         0.573116         0.232465         0.535115
 C        -0.719722         0.653018         0.764982
 C        -1.207667         0.679780         2.269403
 C        -2.515009         0.046430         1.720726
 C        -3.355846         0.742234         0.615607
 C        -2.757404         2.029492         0.144492
 C        -1.212001         1.987154         0.119063
 O        -2.837222        -0.365577        -0.487663
 C        -1.792054        -0.547009         0.486959
 H         1.288633         0.971905         0.389656
 H        -0.729512        -0.043691         2.901746
 H        -1.333685         1.618496         2.826357
 H        -3.159680        -0.541010         2.263758
 H        -4.424547         0.798677         0.645502
 H        -3.058269         2.170677        -0.983572
 H        -3.093739         2.839969         0.881018
 H        -0.784393         2.290762        -0.839176
 H        -0.775148         2.767335         0.816075
 H        -1.366633        -1.531275         0.318916
