19
Iteration:  2187charge 0 multiplicity 1
 O         0.568919         0.230468         0.598012
 C        -0.750928         0.678825         0.711487
 C        -1.191450         0.672432         2.255691
 C        -2.470023         0.006240         1.706937
 C        -3.377470         0.695056         0.559766
 C        -2.777927         2.073793         0.124582
 C        -1.171629         2.014862         0.109302
 O        -2.879092        -0.346468        -0.464976
 C        -1.776638        -0.542134         0.518186
 H         1.154199         0.889473         0.396210
 H        -0.664315        -0.071415         2.946550
 H        -1.160514         1.590726         2.875375
 H        -3.128932        -0.648159         2.446384
 H        -4.521097         0.684194         0.628607
 H        -3.102206         2.382200        -0.818255
 H        -3.038520         2.819766         0.826974
 H        -0.794285         2.208399        -0.960107
 H        -0.690881         2.660187         0.821189
 H        -1.279165        -1.540155         0.310892
