19
Iteration:  1422
 O         0.543051         0.231220         0.630485
 C        -0.771979         0.617950         0.789265
 C        -1.329070         0.727061         2.235987
 C        -2.544644        -0.119940         1.645014
 C        -3.269838         0.704848         0.510283
 C        -2.728997         2.113719         0.191349
 C        -1.162606         1.981659         0.123575
 O        -2.789766        -0.270660        -0.426174
 C        -1.700764        -0.500580         0.486179
 H         0.476258         0.135769        -0.366171
 H        -0.770455         0.054478         2.864850
 H        -1.459763         1.713017         2.689817
 H        -3.167440        -0.771188         2.276993
 H        -4.344873         0.789684         0.638650
 H        -3.314687         2.548463        -0.663306
 H        -3.020079         2.876966         0.953840
 H        -0.845648         1.983609        -0.895655
 H        -0.571351         2.809534         0.567927
 H        -1.312306        -1.494337         0.326718
