19
Iteration:  2045charge 0 multiplicity 1
 O         0.639527         0.386596         0.576316
 C        -0.722285         0.642011         0.821016
 C        -1.225166         0.560138         2.339499
 C        -2.517662         0.048198         1.755240
 C        -3.310883         0.701778         0.442498
 C        -2.752012         2.056561         0.166842
 C        -1.204565         1.950793         0.016309
 O        -2.835669        -0.253421        -0.464676
 C        -1.846183        -0.614779         0.544179
 H         0.934672         0.538380        -0.330765
 H        -0.796321        -0.200992         3.003607
 H        -1.185548         1.405702         2.900896
 H        -3.394031        -0.354528         2.387240
 H        -4.438348         0.665987         0.443577
 H        -3.331608         2.393590        -0.687685
 H        -3.132732         2.706026         0.947767
 H        -0.869295         1.785896        -1.082237
 H        -0.612289         2.782277         0.375888
 H        -1.463268        -1.671230         0.667893
