19
Iteration:  1538
 O         0.575721         0.181034         0.711362
 C        -0.718274         0.650488         0.767671
 C        -1.249280         0.716949         2.199127
 C        -2.470674        -0.056241         1.662688
 C        -3.386533         0.711403         0.573148
 C        -2.734252         2.070666         0.319558
 C        -1.290365         1.889212        -0.006190
 O        -2.784242        -0.119403        -0.522608
 C        -1.732819        -0.577535         0.412340
 H         1.207336         0.813044         1.206260
 H        -0.718000         0.100575         2.912778
 H        -1.388301         1.598068         2.546403
 H        -3.120380        -0.707284         2.328580
 H        -4.494846         0.581716         0.565561
 H        -3.256807         2.477532        -0.548834
 H        -2.913041         2.919096         1.011594
 H        -1.212872         1.589285        -1.060073
 H        -0.615293         2.782029         0.064660
 H        -1.539036        -1.685141         0.248918
