19
Iteration:  2726
 O         0.531550         0.233662         0.466534
 C        -0.776869         0.618927         0.769168
 C        -1.331297         0.756699         2.238082
 C        -2.525434        -0.043697         1.739023
 C        -3.360775         0.734980         0.564217
 C        -2.757096         2.077974         0.237808
 C        -1.168622         1.873140         0.123577
 O        -2.714277        -0.267539        -0.463185
 C        -1.757999        -0.549462         0.469714
 H         1.024521         1.055529         0.679865
 H        -0.797730         0.294868         3.043086
 H        -1.583954         1.756516         2.552767
 H        -3.077031        -0.947352         2.272320
 H        -4.463131         0.856034         0.603022
 H        -3.087033         2.335211        -0.729173
 H        -2.921665         2.715357         1.109240
 H        -0.641821         1.932993        -0.832563
 H        -0.553548         2.741598         0.648178
 H        -1.216599        -1.513938         0.331026
