19
Iteration:  2821charge 0 multiplicity 1
 O         0.624635         0.359909         0.517068
 C        -0.774863         0.577219         0.841503
 C        -1.387082         0.716894         2.241831
 C        -2.630108        -0.117517         1.673319
 C        -3.315050         0.734186         0.532645
 C        -2.650230         2.120986         0.329680
 C        -1.208979         1.811738        -0.051480
 O        -2.833250        -0.189070        -0.451347
 C        -1.682317        -0.612760         0.501640
 H         1.211675         1.014813         0.895448
 H        -0.710055         0.124275         3.008013
 H        -1.469432         1.747297         2.806526
 H        -3.139433        -0.802616         2.422629
 H        -4.419496         0.728817         0.464252
 H        -3.265766         2.674146        -0.438771
 H        -2.672897         2.644128         1.355276
 H        -1.243785         1.578947        -1.163472
 H        -0.366339         2.658274        -0.005305
 H        -1.182643        -1.556954         0.206435
