19
Iteration:  4289charge 0 multiplicity 1
 O         0.551989         0.265759         0.453999
 C        -0.776678         0.643240         0.858599
 C        -1.385953         0.633828         2.365745
 C        -2.475029        -0.061989         1.684944
 C        -3.300179         0.773854         0.600627
 C        -2.720090         2.082103         0.208618
 C        -1.198842         1.887129        -0.018165
 O        -2.788426        -0.198006        -0.451510
 C        -1.718226        -0.550487         0.492320
 H         1.365570         0.835710         0.791582
 H        -0.895527        -0.012246         3.091472
 H        -1.637014         1.686089         2.610907
 H        -3.167252        -0.796208         2.198416
 H        -4.400519         0.672495         0.616884
 H        -3.189666         2.145326        -0.877832
 H        -3.001906         2.959069         0.899323
 H        -0.890620         1.645873        -1.031879
 H        -0.597285         2.807901         0.445196
 H        -1.279710        -1.604901         0.338447
