19
Iteration:  3501
 O         0.699464         0.248626         0.722314
 C        -0.716198         0.671373         0.721986
 C        -1.262586         0.698343         2.219256
 C        -2.521487        -0.083408         1.732760
 C        -3.453464         0.694717         0.557083
 C        -2.693860         2.084061         0.300160
 C        -1.248953         1.860606        -0.027487
 O        -2.849747        -0.213637        -0.496789
 C        -1.816115        -0.529814         0.390683
 H         1.245255         1.064837         0.573048
 H        -0.642726         0.077127         2.876770
 H        -1.348731         1.677186         2.652870
 H        -3.083461        -0.636513         2.486234
 H        -4.552976         0.552454         0.647413
 H        -3.154033         2.623576        -0.501381
 H        -2.908887         2.826072         1.076353
 H        -0.949486         1.624189        -1.051774
 H        -0.563541         2.745822         0.208689
 H        -1.462466        -1.554954         0.127903
