19
Iteration:  4277
 O         0.493072         0.219246         0.519049
 C        -0.792260         0.645503         0.781122
 C        -1.329135         0.707313         2.323165
 C        -2.532723        -0.103671         1.715036
 C        -3.244606         0.723544         0.602113
 C        -2.719522         2.139173         0.227851
 C        -1.216946         1.844860         0.047144
 O        -2.732171        -0.221510        -0.502534
 C        -1.733049        -0.527789         0.454594
 H         1.073730         1.092958         0.611443
 H        -0.569165         0.309815         2.985634
 H        -1.669444         1.625473         2.867283
 H        -3.213015        -0.737150         2.366712
 H        -4.337370         0.681097         0.590420
 H        -3.243732         2.526404        -0.753265
 H        -3.012419         2.927984         1.000717
 H        -1.068574         1.639118        -1.013579
 H        -0.469820         2.706237         0.294616
 H        -1.222390        -1.574686         0.406368
