19
Iteration:  3339
 O         0.640480         0.331442         0.582850
 C        -0.741147         0.590199         0.763411
 C        -1.266682         0.616621         2.170647
 C        -2.623480         0.034274         1.679026
 C        -3.347739         0.691236         0.518455
 C        -2.738641         2.123037         0.318519
 C        -1.162302         1.834694         0.051792
 O        -2.825787        -0.219334        -0.494661
 C        -1.762030        -0.592269         0.528526
 H         0.918358         1.217196         0.968338
 H        -0.874878        -0.120788         2.903119
 H        -1.226394         1.701497         2.600018
 H        -3.195392        -0.680346         2.351437
 H        -4.434808         0.618567         0.438668
 H        -3.044067         2.708648        -0.571165
 H        -2.987140         2.801716         1.190147
 H        -0.765207         1.667581        -0.922550
 H        -0.621467         2.702700         0.303381
 H        -1.475892        -1.672297         0.394893
