19
Iteration:  2904charge 0 multiplicity 1
 O         0.582817         0.395821         0.446719
 C        -0.706441         0.650239         0.862263
 C        -1.333141         0.631298         2.315911
 C        -2.646081        -0.026571         1.673329
 C        -3.311955         0.741869         0.489552
 C        -2.633587         2.030641         0.233157
 C        -1.128003         1.857631         0.060177
 O        -2.826229        -0.256579        -0.396848
 C        -1.824811        -0.608347         0.497387
 H         1.021062         1.196767         0.561145
 H        -0.807021        -0.156074         2.879470
 H        -1.485016         1.664413         2.755416
 H        -3.225042        -0.798724         2.228850
 H        -4.425424         0.747224         0.536021
 H        -3.115319         2.524992        -0.652838
 H        -2.778405         2.706746         1.053325
 H        -0.949981         1.682367        -0.992587
 H        -0.522092         2.691186         0.348262
 H        -1.188467        -1.494533         0.339160
