19
Iteration:  2900charge 0 multiplicity 1
 O         0.581875         0.391342         0.444950
 C        -0.746719         0.631822         0.846569
 C        -1.322416         0.662788         2.315022
 C        -2.651815        -0.038299         1.651942
 C        -3.316204         0.750750         0.515074
 C        -2.651924         2.022098         0.241291
 C        -1.088750         1.850140         0.056469
 O        -2.831633        -0.260544        -0.398591
 C        -1.804202        -0.598139         0.482801
 H         1.164845         1.248383         0.533237
 H        -0.803936        -0.007345         3.054323
 H        -1.345190         1.629428         2.929870
 H        -3.297323        -0.809674         2.226533
 H        -4.391558         0.688073         0.503319
 H        -3.030332         2.446911        -0.658098
 H        -2.929597         2.790426         1.050928
 H        -0.814920         1.617650        -0.988954
 H        -0.659876         2.805448         0.489654
 H        -1.290781        -1.563325         0.240582
