19
Iteration:   530charge 0 multiplicity 1
 O         0.609650         0.315861         0.729066
 C        -0.773154         0.652055         0.762708
 C        -1.323540         0.677305         2.219616
 C        -2.554347        -0.065298         1.703648
 C        -3.308567         0.720451         0.599266
 C        -2.707451         2.076149         0.110343
 C        -1.114457         1.919969         0.008396
 O        -2.865952        -0.270175        -0.412095
 C        -1.754997        -0.560286         0.465682
 H         0.805464         0.406689        -0.158709
 H        -0.651764         0.113348         2.802497
 H        -1.445335         1.618525         2.716663
 H        -3.271748        -0.646090         2.368299
 H        -4.414158         0.723622         0.749915
 H        -3.209686         2.335728        -0.867299
 H        -2.977423         2.840539         0.772338
 H        -0.789302         1.852413        -1.131561
 H        -0.561930         2.777114         0.395357
 H        -1.321292        -1.483455         0.292380
