19
Iteration:  3369
 O         0.677319         0.323350         0.681485
 C        -0.725683         0.667662         0.778622
 C        -1.282869         0.588416         2.224666
 C        -2.570264        -0.086831         1.678476
 C        -3.332310         0.743197         0.578473
 C        -2.696105         2.136412         0.275565
 C        -1.243775         1.817833        -0.123805
 O        -2.890044        -0.148891        -0.486603
 C        -1.742935        -0.592940         0.475085
 H         0.991981         1.061519         1.114964
 H        -0.747558        -0.025962         3.009196
 H        -1.472852         1.494932         2.864027
 H        -3.163136        -0.812432         2.195094
 H        -4.476706         0.728853         0.648336
 H        -3.120489         2.528342        -0.637247
 H        -2.786536         2.714823         1.241265
 H        -0.949256         1.370990        -1.140049
 H        -0.754303         2.859452         0.025756
 H        -1.365718        -1.679265         0.348887
