19
Iteration:  3945charge 0 multiplicity 1
 O         0.629863         0.363963         0.743277
 C        -0.749231         0.609306         0.757484
 C        -1.309313         0.654799         2.258342
 C        -2.541162        -0.110004         1.685466
 C        -3.324998         0.772793         0.565359
 C        -2.642618         2.074256         0.213313
 C        -1.160706         1.838628        -0.043777
 O        -2.977131        -0.211187        -0.472850
 C        -1.715327        -0.570126         0.451782
 H         1.050399         0.913153         0.029756
 H        -0.510888         0.239879         2.899514
 H        -1.396518         1.606594         2.714217
 H        -3.054860        -0.929988         2.109791
 H        -4.397549         0.790163         0.779240
 H        -3.094704         2.622856        -0.671895
 H        -2.890601         2.680505         1.059588
 H        -1.050359         1.605196        -1.143334
 H        -0.638983         2.745607         0.358208
 H        -1.519254        -1.639715         0.325432
