19
Iteration:  4071
 O         0.711618         0.366269         0.741260
 C        -0.750171         0.542552         0.725407
 C        -1.241769         0.575544         2.201019
 C        -2.543261        -0.006383         1.683970
 C        -3.337103         0.754762         0.618692
 C        -2.732883         2.084253         0.193093
 C        -1.173450         1.933146        -0.021180
 O        -2.882787        -0.262995        -0.466374
 C        -1.875798        -0.587205         0.455236
 H         1.091710         1.209785         0.290295
 H        -0.605456        -0.107040         2.757267
 H        -1.455318         1.578567         2.755389
 H        -3.206845        -0.664234         2.330920
 H        -4.421074         0.753261         0.472452
 H        -3.281872         2.703855        -0.503727
 H        -2.874197         2.839564         1.011458
 H        -0.858147         1.702553        -1.030431
 H        -0.480063         2.733831         0.318046
 H        -1.692103        -1.652095         0.366189
