19
Iteration:  1385charge 0 multiplicity 1
 O         0.711063         0.389743         0.752666
 C        -0.740472         0.550947         0.779414
 C        -1.323675         0.655596         2.134129
 C        -2.610632        -0.008671         1.620805
 C        -3.342066         0.741729         0.585811
 C        -2.708244         2.087941         0.316901
 C        -1.196545         1.765213        -0.061205
 O        -2.888175        -0.168015        -0.450790
 C        -1.747037        -0.606363         0.415444
 H         1.155317         1.298615         0.515202
 H        -0.702006        -0.075780         2.730417
 H        -1.204196         1.706406         2.728108
 H        -3.193520        -0.724570         2.227956
 H        -4.436621         0.788460         0.575132
 H        -3.154113         2.632498        -0.463435
 H        -2.808848         2.499886         1.306862
 H        -1.179073         1.442971        -1.131479
 H        -0.493197         2.594388         0.145954
 H        -1.503133        -1.630998         0.478499
