19
Iteration:  2008
 O         0.605292         0.350896         0.547374
 C        -0.753939         0.550083         0.705995
 C        -1.328115         0.693494         2.294693
 C        -2.560424         0.019287         1.695406
 C        -3.304095         0.695759         0.477272
 C        -2.746112         2.056295         0.240646
 C        -1.171220         1.944531         0.062212
 O        -2.758067        -0.256112        -0.418104
 C        -1.786146        -0.575054         0.558671
 H         0.787099        -0.136686        -0.206966
 H        -0.897107         0.088956         3.070673
 H        -1.554436         1.764682         2.615900
 H        -3.003879        -0.657140         2.381769
 H        -4.390947         0.730378         0.441812
 H        -3.191452         2.456315        -0.634590
 H        -3.058833         2.729840         1.053139
 H        -0.873424         2.088191        -0.936030
 H        -0.570703         2.670781         0.698350
 H        -1.373894        -1.547843         0.466297
