19
Iteration:  3865
 O         0.591598         0.248588         0.514239
 C        -0.779628         0.602324         0.760019
 C        -1.329738         0.693023         2.256058
 C        -2.591759        -0.036526         1.699326
 C        -3.265240         0.760111         0.510897
 C        -2.698550         2.085059         0.219597
 C        -1.162539         1.993642         0.041386
 O        -2.801011        -0.272946        -0.433141
 C        -1.786046        -0.611142         0.549365
 H         1.130336         0.988167         0.983015
 H        -0.713469         0.019926         2.809780
 H        -1.542610         1.655957         2.701656
 H        -3.184260        -0.776843         2.353940
 H        -4.397702         0.609534         0.505727
 H        -3.188800         2.301999        -0.710669
 H        -2.884422         2.727709         1.097568
 H        -0.769741         2.089037        -0.978421
 H        -0.718811         2.839480         0.612662
 H        -1.394614        -1.592863         0.318870
