19
Iteration:  2997
 O         0.571845         0.314325         0.529600
 C        -0.795848         0.647658         0.786895
 C        -1.257837         0.655974         2.314662
 C        -2.584042        -0.042531         1.723516
 C        -3.311622         0.700625         0.533362
 C        -2.675981         2.120631         0.185147
 C        -1.155460         1.913982         0.043554
 O        -2.837129        -0.311930        -0.483633
 C        -1.794456        -0.550325         0.523169
 H         1.183756         1.107845         0.810689
 H        -0.649092        -0.189801         2.630123
 H        -1.346731         1.573741         2.875656
 H        -3.283995        -0.566551         2.287137
 H        -4.384969         0.764147         0.574706
 H        -3.134688         2.438671        -0.725173
 H        -2.995373         2.900369         0.921553
 H        -0.780392         1.727926        -0.997252
 H        -0.534159         2.655773         0.675991
 H        -1.307424        -1.492355         0.320637
