19
Iteration:  3493
 O         0.645823         0.276957         0.669921
 C        -0.701093         0.623812         0.772891
 C        -1.321686         0.669080         2.242302
 C        -2.508814        -0.061304         1.654621
 C        -3.364872         0.716219         0.635401
 C        -2.707997         2.014544         0.230769
 C        -1.164109         1.902892        -0.047907
 O        -2.859351        -0.185740        -0.468100
 C        -1.792601        -0.524583         0.437365
 H         0.938770         1.144200         0.522028
 H        -0.725550        -0.033913         2.803518
 H        -1.522401         1.645528         2.824056
 H        -3.163088        -0.678802         2.377276
 H        -4.441660         0.705994         0.589209
 H        -3.342050         2.431202        -0.586378
 H        -2.857192         2.687254         1.123835
 H        -1.144725         1.660767        -1.115534
 H        -0.536320         2.720626         0.335045
 H        -1.428076        -1.517600         0.229919
