19
Iteration:  3928charge 0 multiplicity 1
 O         0.587200         0.282824         0.708663
 C        -0.772812         0.620065         0.766019
 C        -1.260759         0.675645         2.176911
 C        -2.551087        -0.032929         1.694045
 C        -3.327496         0.706395         0.591654
 C        -2.689083         2.087517         0.276506
 C        -1.204402         1.828627        -0.036980
 O        -2.766814        -0.189396        -0.479020
 C        -1.838640        -0.563549         0.443833
 H         1.083206         1.113336         0.369638
 H        -0.769787        -0.118129         2.784584
 H        -1.332730         1.661620         2.775135
 H        -3.177322        -0.524022         2.491503
 H        -4.471683         0.612588         0.555494
 H        -3.418079         2.406298        -0.490759
 H        -2.827307         2.923878         1.023928
 H        -1.069010         1.625511        -1.087866
 H        -0.573819         2.699016         0.180385
 H        -1.213815        -1.444837         0.219634
