19
Iteration:  2420
 O         0.676665         0.299351         0.706066
 C        -0.744283         0.690986         0.757298
 C        -1.245590         0.689497         2.189431
 C        -2.497905        -0.154518         1.739328
 C        -3.344357         0.665195         0.645778
 C        -2.760864         2.089546         0.155130
 C        -1.154750         1.967112         0.023557
 O        -2.932023        -0.226275        -0.463915
 C        -1.788854        -0.533897         0.429171
 H         0.953127         0.156275        -0.142585
 H        -0.536683         0.288568         2.926175
 H        -1.480942         1.693432         2.655576
 H        -3.085719        -0.773880         2.448648
 H        -4.475680         0.673561         0.677308
 H        -3.144240         2.330021        -0.830933
 H        -3.110588         2.725631         0.940971
 H        -0.890544         1.743661        -1.066241
 H        -0.702754         2.884904         0.454661
 H        -1.377094        -1.541942         0.229402
