19
Iteration:  4465charge 0 multiplicity 1
 O         0.605741         0.356342         0.663405
 C        -0.816687         0.590441         0.759891
 C        -1.373347         0.576363         2.299774
 C        -2.555667        -0.075694         1.714722
 C        -3.285068         0.770879         0.635449
 C        -2.710004         2.095467         0.167787
 C        -1.221055         1.919758        -0.020154
 O        -2.761695        -0.160288        -0.471625
 C        -1.744638        -0.597835         0.462908
 H         0.824391         0.063218        -0.276024
 H        -0.648396         0.042538         2.889965
 H        -1.417812         1.529548         2.864903
 H        -3.019874        -0.749895         2.424557
 H        -4.366911         0.697200         0.689596
 H        -3.063312         2.394643        -0.862431
 H        -2.825286         2.903325         0.885551
 H        -0.877641         1.798038        -1.007420
 H        -0.666057         2.750021         0.346377
 H        -1.343973        -1.597272         0.176044
