19
Iteration:  4642charge 0 multiplicity 1
 O         0.636517         0.315178         0.719089
 C        -0.695273         0.677573         0.788957
 C        -1.330221         0.633539         2.237623
 C        -2.609780         0.003659         1.675620
 C        -3.329637         0.730721         0.530242
 C        -2.718603         2.025454         0.336596
 C        -1.218796         1.781980        -0.055119
 O        -2.769257        -0.118596        -0.489865
 C        -1.783693        -0.557301         0.463671
 H         0.775912         0.366119        -0.177689
 H        -0.709279        -0.198111         2.719600
 H        -1.418389         1.547381         2.912692
 H        -3.146098        -0.826736         2.198381
 H        -4.424065         0.752788         0.360610
 H        -3.234239         2.565254        -0.508218
 H        -2.725330         2.760787         1.187452
 H        -1.031839         1.410421        -1.014227
 H        -0.761090         2.793762         0.034345
 H        -1.342795        -1.542275         0.333644
