19
Iteration:  4057
 O         0.621571         0.325147         0.671944
 C        -0.735888         0.639324         0.773367
 C        -1.298370         0.693321         2.183957
 C        -2.563725        -0.065332         1.692029
 C        -3.277987         0.746504         0.503887
 C        -2.663632         2.131279         0.292344
 C        -1.168168         1.860676         0.042429
 O        -2.903008        -0.262875        -0.482200
 C        -1.821433        -0.634954         0.471272
 H         1.080034         0.986094         0.099000
 H        -0.780757         0.007116         2.883784
 H        -1.311800         1.717566         2.573327
 H        -3.172187        -0.700443         2.369644
 H        -4.312549         0.787318         0.739058
 H        -3.070750         2.361248        -0.725428
 H        -2.920970         2.672289         1.172797
 H        -1.074093         1.867039        -1.085127
 H        -0.630859         2.818765         0.459552
 H        -1.331384        -1.651647         0.404823
