19
Iteration:  3727charge 0 multiplicity 1
 O         0.610383         0.353106         0.643218
 C        -0.790448         0.693075         0.773877
 C        -1.260734         0.689828         2.294538
 C        -2.530293        -0.162021         1.705855
 C        -3.279709         0.730597         0.618538
 C        -2.717927         2.099357         0.100544
 C        -1.168445         1.934953         0.102747
 O        -2.857685        -0.236737        -0.501228
 C        -1.820489        -0.585358         0.458639
 H         0.640498        -0.007004        -0.186564
 H        -0.486711         0.020000         2.852812
 H        -1.501547         1.578951         2.919348
 H        -3.187598        -0.686739         2.345915
 H        -4.323292         0.712345         0.747880
 H        -2.930703         2.175776        -1.004030
 H        -2.820281         2.900165         0.796858
 H        -0.896800         1.846683        -0.950665
 H        -0.742397         2.724141         0.736103
 H        -1.355484        -1.610537         0.254332
