19
Iteration:  3858charge 0 multiplicity 1
 O         0.618330         0.236180         0.556635
 C        -0.759094         0.600725         0.758115
 C        -1.317924         0.634759         2.243014
 C        -2.604710        -0.009907         1.717345
 C        -3.352746         0.728266         0.577886
 C        -2.726895         2.094943         0.188730
 C        -1.156651         1.997951         0.053877
 O        -2.788782        -0.286482        -0.422597
 C        -1.761612        -0.596768         0.476909
 H         1.095390         1.099355         0.967269
 H        -0.536418         0.049640         2.843385
 H        -1.453717         1.666347         2.604662
 H        -3.206280        -0.745065         2.182244
 H        -4.407132         0.730977         0.655168
 H        -3.057366         2.642856        -0.772301
 H        -2.960703         2.935888         0.840489
 H        -0.797494         2.034865        -1.030184
 H        -0.729132         2.948912         0.468095
 H        -1.441654        -1.654663         0.342467
