19
Iteration:   528
 O         0.607628         0.325319         0.732987
 C        -0.761770         0.664901         0.781525
 C        -1.337063         0.665090         2.209529
 C        -2.552483        -0.077545         1.705157
 C        -3.300191         0.725965         0.591480
 C        -2.690747         2.082025         0.120985
 C        -1.108367         1.915793        -0.019479
 O        -2.876604        -0.281041        -0.408058
 C        -1.778912        -0.560524         0.473192
 H         0.840860         0.456546        -0.201240
 H        -0.647028         0.140171         2.806996
 H        -1.446731         1.585453         2.750463
 H        -3.272196        -0.655797         2.387408
 H        -4.360403         0.711348         0.730813
 H        -3.201644         2.357400        -0.822280
 H        -3.030239         2.820255         0.771021
 H        -0.815785         1.889789        -1.106357
 H        -0.503297         2.771055         0.337922
 H        -1.282712        -1.460113         0.245436
