19
Iteration:  4723charge 0 multiplicity 1
 O         0.587107         0.215618         0.648446
 C        -0.796896         0.624753         0.783006
 C        -1.319648         0.691923         2.258599
 C        -2.511282        -0.048959         1.633263
 C        -3.268434         0.714514         0.523190
 C        -2.763711         2.087131         0.243316
 C        -1.203220         1.964834         0.118811
 O        -2.790806        -0.205131        -0.471449
 C        -1.771252        -0.585393         0.448491
 H         1.026214         0.348949        -0.129696
 H        -0.822971         0.018745         2.965426
 H        -1.289994         1.710259         2.623842
 H        -3.195980        -0.662231         2.200723
 H        -4.362296         0.721086         0.465619
 H        -3.134092         2.527022        -0.691077
 H        -2.910183         2.872799         1.017861
 H        -0.895271         1.853982        -0.854823
 H        -0.766656         2.850574         0.539484
 H        -1.154009        -1.483140         0.367838
