19
Iteration:   837
 O         0.482620         0.236380         0.420690
 C        -0.786175         0.658774         0.842151
 C        -1.332161         0.743051         2.328154
 C        -2.558390        -0.037760         1.719003
 C        -3.297526         0.719230         0.528955
 C        -2.713152         2.080171         0.124730
 C        -1.144688         1.945812         0.094917
 O        -2.709304        -0.273917        -0.442098
 C        -1.720928        -0.568346         0.571252
 H         1.211753         0.930778         0.570000
 H        -0.734925         0.018479         2.882227
 H        -1.594085         1.617897         2.907002
 H        -3.330824        -0.747978         2.283776
 H        -4.393511         0.675106         0.523368
 H        -3.286254         2.323526        -0.855189
 H        -3.067522         2.742715         0.911851
 H        -0.876090         1.674955        -0.932464
 H        -0.655888         2.729517         0.540259
 H        -1.383279        -1.542421         0.434716
