19
Iteration:  1233
 O         0.696879         0.452998         0.732791
 C        -0.722050         0.571635         0.744921
 C        -1.319858         0.608514         2.174613
 C        -2.607984        -0.072935         1.704741
 C        -3.382691         0.739354         0.544089
 C        -2.635542         2.091617         0.307417
 C        -1.215628         1.785836        -0.116983
 O        -2.872296        -0.173419        -0.458044
 C        -1.793887        -0.674158         0.477327
 H         1.135871         1.402196         0.765289
 H        -0.650446        -0.077621         2.681373
 H        -1.359599         1.668554         2.433828
 H        -3.039992        -0.740490         2.563959
 H        -4.432083         0.949535         0.485492
 H        -3.182710         2.791317        -0.393311
 H        -2.608558         2.888210         1.222616
 H        -1.141607         1.429077        -1.174376
 H        -0.524107         2.650126        -0.001623
 H        -1.636187        -1.720423         0.426428
