19
Iteration:   850charge 0 multiplicity 1
 O         0.552933         0.158748         0.401033
 C        -0.787698         0.643231         0.817380
 C        -1.401030         0.797333         2.301042
 C        -2.526513        -0.036361         1.724051
 C        -3.234148         0.656050         0.564406
 C        -2.722210         2.010936         0.122873
 C        -1.171087         1.984447         0.138449
 O        -2.778539        -0.238575        -0.445182
 C        -1.759725        -0.567773         0.515945
 H         1.148708         0.878447         0.694365
 H        -0.914818         0.255638         3.120253
 H        -1.523593         1.804812         2.624887
 H        -3.093063        -0.693711         2.440786
 H        -4.378248         0.703731         0.658470
 H        -3.162807         2.283112        -0.973111
 H        -3.021544         2.886666         0.758908
 H        -0.508806         2.316329        -0.690894
 H        -0.928028         2.756881         0.809942
 H        -1.156991        -1.465685         0.481006
