19
Iteration:  2615charge 0 multiplicity 1
 O         0.605148         0.231641         0.615796
 C        -0.776304         0.645261         0.786232
 C        -1.218450         0.687622         2.198148
 C        -2.598175         0.093369         1.720808
 C        -3.313700         0.713983         0.527560
 C        -2.778718         2.055724         0.255862
 C        -1.228124         1.943494         0.049235
 O        -2.754848        -0.330867        -0.459057
 C        -1.764321        -0.570350         0.448626
 H         1.018542         0.799214        -0.038176
 H        -0.812580        -0.076436         2.839902
 H        -1.211457         1.585579         2.784367
 H        -3.248527        -0.537531         2.476766
 H        -4.400673         0.697802         0.672145
 H        -3.199120         2.628872        -0.551409
 H        -3.004533         2.757569         1.102437
 H        -1.005900         1.862202        -1.025439
 H        -0.733365         2.860797         0.579159
 H        -1.248229        -1.512003         0.251591
