19
Iteration:  2171
 O         0.631040         0.235465         0.406500
 C        -0.719527         0.616760         0.829950
 C        -1.310906         0.685514         2.255228
 C        -2.605649         0.029263         1.726310
 C        -3.275834         0.767171         0.612447
 C        -2.716259         2.000057         0.144101
 C        -1.217923         1.949186         0.193834
 O        -2.798468        -0.302341        -0.448931
 C        -1.783641        -0.548007         0.472061
 H         1.126628         1.108363         0.489133
 H        -0.757998         0.008042         2.860426
 H        -1.365182         1.730215         2.661282
 H        -3.166321        -0.557494         2.354600
 H        -4.324028         0.737527         0.711029
 H        -3.246768         2.102307        -0.893406
 H        -3.237126         2.906742         0.596365
 H        -0.848098         1.919652        -0.796588
 H        -0.985124         2.913557         0.710465
 H        -1.333028        -1.492225         0.610785
