19
Iteration:  4668
 O         0.634645         0.421654         0.777811
 C        -0.759908         0.547841         0.767472
 C        -1.260665         0.514018         2.223493
 C        -2.537352        -0.019554         1.733962
 C        -3.284300         0.765494         0.547376
 C        -2.739523         2.227788         0.194923
 C        -1.227568         1.840868        -0.005732
 O        -2.849983        -0.213277        -0.514902
 C        -1.818403        -0.637396         0.450729
 H         0.942374         0.531292        -0.108422
 H        -0.751674        -0.263796         2.831606
 H        -1.197106         1.487229         2.693606
 H        -3.116044        -0.692998         2.380709
 H        -4.387562         0.656905         0.481734
 H        -3.287938         2.620654        -0.692423
 H        -2.745452         3.064242         0.967831
 H        -0.794868         1.660252        -1.040616
 H        -0.673500         2.699676         0.393889
 H        -1.388831        -1.647252         0.382906
