19
Iteration:  3878
 O         0.516390         0.271872         0.462044
 C        -0.765060         0.665106         0.792582
 C        -1.364106         0.741402         2.244374
 C        -2.554867        -0.034859         1.738013
 C        -3.267611         0.655449         0.495499
 C        -2.675495         2.075570         0.256057
 C        -1.177032         1.872297         0.111476
 O        -2.773369        -0.267086        -0.500825
 C        -1.764230        -0.575396         0.511216
 H         1.254818         0.752571         0.887431
 H        -0.931981         0.072356         3.010750
 H        -1.378451         1.703130         2.719674
 H        -3.298133        -0.445671         2.448907
 H        -4.333011         0.913159         0.492547
 H        -3.121878         2.776235        -0.537744
 H        -3.041589         2.696992         1.053106
 H        -0.897322         1.812391        -0.996730
 H        -0.480488         2.660476         0.575234
 H        -1.218439        -1.506393         0.602441
