19
Iteration:  3101
 O         0.676293         0.263206         0.720627
 C        -0.720875         0.586820         0.771954
 C        -1.327553         0.698736         2.156660
 C        -2.520335        -0.040837         1.685902
 C        -3.323654         0.746189         0.551133
 C        -2.764772         2.075894         0.312635
 C        -1.240893         1.806273        -0.024461
 O        -2.834059        -0.145415        -0.493923
 C        -1.779936        -0.564726         0.500209
 H         1.168646         1.040619         0.662352
 H        -0.619014         0.031422         2.591416
 H        -1.299183         1.632962         2.735584
 H        -3.271712        -0.756794         2.244405
 H        -4.416812         0.726510         0.347613
 H        -3.203810         2.623866        -0.590202
 H        -3.008915         2.655787         1.184414
 H        -1.092894         1.589226        -1.085382
 H        -0.691503         2.739883        -0.044585
 H        -1.279896        -1.555027         0.321696
