19
Iteration:  4081charge 0 multiplicity 1
 O         0.761174         0.373514         0.746047
 C        -0.779953         0.617510         0.742606
 C        -1.215454         0.555515         2.223073
 C        -2.593102        -0.048253         1.677037
 C        -3.413067         0.769503         0.567164
 C        -2.713652         2.128492         0.188881
 C        -1.201702         1.830482        -0.066281
 O        -2.891660        -0.198731        -0.434306
 C        -1.831332        -0.608374         0.444183
 H         1.209542         1.232353         0.299818
 H        -0.830166        -0.281533         2.777789
 H        -1.115927         1.533912         2.854452
 H        -3.255099        -0.559834         2.441196
 H        -4.489728         0.714753         0.759845
 H        -3.209127         2.404348        -0.748740
 H        -2.748217         2.702878         1.100698
 H        -0.909640         1.709220        -1.126741
 H        -0.636319         2.717971         0.429797
 H        -1.326418        -1.593886         0.342945
