19
Iteration:  1139
 O         0.648384         0.344174         0.436365
 C        -0.682795         0.590243         0.798078
 C        -1.201757         0.620253         2.277984
 C        -2.662467         0.112082         1.778101
 C        -3.350725         0.749361         0.432785
 C        -2.779925         2.081150         0.120415
 C        -1.194098         1.900978         0.186353
 O        -2.814213        -0.338327        -0.463395
 C        -1.796588        -0.608158         0.596040
 H         1.159380         1.019461         0.772108
 H        -0.600834        -0.156583         2.833906
 H        -1.295267         1.632576         2.715905
 H        -3.266872        -0.515278         2.323543
 H        -4.478386         0.715747         0.242764
 H        -3.198278         2.535446        -0.765651
 H        -3.173056         2.801578         0.807233
 H        -0.838802         1.801684        -0.797719
 H        -0.650295         2.721621         0.693214
 H        -1.359843        -1.690028         0.760715
