19
Iteration:  3955
 O         0.709282         0.394017         0.736895
 C        -0.702222         0.625288         0.793701
 C        -1.339926         0.641565         2.232371
 C        -2.513445        -0.100208         1.640249
 C        -3.345508         0.711579         0.571176
 C        -2.635367         2.116709         0.198112
 C        -1.138139         1.857815         0.008421
 O        -3.010015        -0.239040        -0.437660
 C        -1.818305        -0.581215         0.439080
 H         0.981657         0.692792        -0.233634
 H        -0.758315        -0.001556         2.908395
 H        -1.753432         1.516969         2.610721
 H        -3.173544        -0.645746         2.298158
 H        -4.454394         0.696475         0.761405
 H        -3.278830         2.514214        -0.588335
 H        -2.619916         2.849345         0.995837
 H        -0.886128         1.676624        -1.085799
 H        -0.501294         2.741988         0.151532
 H        -1.207282        -1.464189         0.242828
