19
Iteration:  3176charge 0 multiplicity 1
 O         0.636422         0.134086         0.595568
 C        -0.755419         0.645180         0.764900
 C        -1.279431         0.768663         2.223157
 C        -2.549533        -0.028202         1.668435
 C        -3.311723         0.684883         0.554579
 C        -2.762617         2.013868         0.236740
 C        -1.228762         1.956674         0.104850
 O        -2.794232        -0.203145        -0.516528
 C        -1.794360        -0.522995         0.474400
 H         1.371870         0.895669         0.654280
 H        -0.835144         0.055761         2.906131
 H        -1.387555         1.726667         2.792121
 H        -3.146422        -0.765259         2.382751
 H        -4.398129         0.826116         0.466334
 H        -3.089178         2.517830        -0.699540
 H        -3.209438         2.470486         1.132458
 H        -0.927323         2.203648        -0.938518
 H        -0.647754         2.841156         0.676043
 H        -1.399731        -1.576739         0.468966
