19
Iteration:   440
 O         0.560745         0.263223         0.624671
 C        -0.758011         0.692436         0.786443
 C        -1.348662         0.726095         2.279415
 C        -2.558342        -0.019839         1.681358
 C        -3.330679         0.699320         0.520065
 C        -2.647853         2.044335         0.153906
 C        -1.197647         1.970462         0.093689
 O        -2.827961        -0.352289        -0.419062
 C        -1.680564        -0.477826         0.468958
 H         0.648593        -0.171460        -0.171892
 H        -0.663437         0.107736         2.878900
 H        -1.429001         1.644022         2.871193
 H        -3.194027        -0.767159         2.278992
 H        -4.409784         0.765822         0.529219
 H        -3.038249         2.455216        -0.801937
 H        -3.007288         2.774279         0.860785
 H        -0.922532         1.887160        -1.059062
 H        -0.652163         2.858779         0.583142
 H        -1.171877        -1.434613         0.377690
