19
Iteration:  1957
 O         0.677210         0.346897         0.900375
 C        -0.740524         0.663949         0.691290
 C        -1.257751         0.677072         2.216976
 C        -2.539304        -0.079331         1.655848
 C        -3.310313         0.715429         0.605836
 C        -2.739550         2.072338         0.269152
 C        -1.297914         1.841586        -0.183204
 O        -2.862171        -0.153891        -0.443654
 C        -1.795043        -0.645137         0.398975
 H         1.172765         0.425001        -0.024888
 H        -0.535794        -0.016615         2.623015
 H        -1.259250         1.556391         2.751074
 H        -3.124953        -0.597445         2.456500
 H        -4.418265         0.747336         0.687421
 H        -3.307876         2.727256        -0.392465
 H        -2.621433         2.715397         1.159127
 H        -1.100828         1.663800        -1.276374
 H        -0.704147         2.714427         0.068887
 H        -1.355261        -1.656942         0.228689
