19
Iteration:  1615
 O         0.647563         0.251849         0.577099
 C        -0.769482         0.602187         0.757439
 C        -1.274173         0.614601         2.187590
 C        -2.572387         0.010973         1.670140
 C        -3.329954         0.769043         0.530409
 C        -2.818080         2.089322         0.191152
 C        -1.174710         1.905277         0.112936
 O        -2.733445        -0.201228        -0.439747
 C        -1.805876        -0.587152         0.541032
 H         1.093479         1.113128         0.335659
 H        -0.883686        -0.255782         2.757784
 H        -1.271542         1.633935         2.897867
 H        -3.234003        -0.605445         2.359098
 H        -4.433428         0.665322         0.494221
 H        -3.249132         2.335943        -0.768664
 H        -3.135544         2.858094         0.960332
 H        -0.883498         1.858806        -0.939334
 H        -0.670139         2.667825         0.708877
 H        -1.394502        -1.619939         0.542869
