19
Iteration:  1769charge 0 multiplicity 1
 O         0.681195         0.223933         0.638977
 C        -0.720886         0.641251         0.801215
 C        -1.305190         0.673610         2.211771
 C        -2.553662        -0.029329         1.663148
 C        -3.349585         0.667735         0.523477
 C        -2.723553         2.052009         0.241086
 C        -1.167918         1.950573         0.110643
 O        -2.894378        -0.202137        -0.541962
 C        -1.784001        -0.561544         0.493805
 H         1.263806         1.024967         0.277689
 H        -0.767452         0.073666         2.880283
 H        -1.494640         1.637750         2.602221
 H        -3.073183        -0.718191         2.341133
 H        -4.441937         0.681176         0.684437
 H        -3.268099         2.505185        -0.524390
 H        -2.947325         2.719496         1.097839
 H        -0.868119         1.976950        -0.894993
 H        -0.759156         2.869569         0.470694
 H        -1.351871        -1.542608         0.405309
