19
Iteration:  3982
 O         0.671389         0.432146         0.718250
 C        -0.734610         0.566591         0.733375
 C        -1.247118         0.635511         2.223191
 C        -2.585478        -0.016975         1.684175
 C        -3.352284         0.720052         0.530773
 C        -2.661167         2.067794         0.241459
 C        -1.195445         1.886102         0.050585
 O        -2.893787        -0.215426        -0.498903
 C        -1.813441        -0.597620         0.501013
 H         0.921104        -0.134622        -0.112272
 H        -0.554893        -0.117065         2.653037
 H        -1.423241         1.636499         2.736990
 H        -3.264266        -0.701906         2.260241
 H        -4.454407         0.805225         0.584579
 H        -3.222666         2.434320        -0.666070
 H        -2.760270         2.793024         1.109855
 H        -1.026542         1.871928        -1.027458
 H        -0.552496         2.771448         0.312019
 H        -1.405780        -1.641946         0.507607
