19
Iteration:  3882charge 0 multiplicity 1
 O         0.506906         0.265293         0.441579
 C        -0.769431         0.648941         0.832137
 C        -1.358431         0.734149         2.257615
 C        -2.584960         0.020302         1.740859
 C        -3.310876         0.666308         0.508516
 C        -2.690909         2.072473         0.272171
 C        -1.171406         1.858627         0.127417
 O        -2.745036        -0.288078        -0.520784
 C        -1.725338        -0.558679         0.488632
 H         1.199710         0.769568         0.910573
 H        -0.795962         0.057047         2.992092
 H        -1.442140         1.824114         2.590505
 H        -3.259210        -0.508688         2.379277
 H        -4.380907         0.746102         0.559295
 H        -2.928321         2.857310        -0.546498
 H        -2.956050         2.738521         1.135266
 H        -0.920708         1.717468        -0.936187
 H        -0.505120         2.743109         0.369922
 H        -1.245179        -1.578719         0.512020
