19
Iteration:  3580charge 0 multiplicity 1
 O         0.644274         0.279640         0.498409
 C        -0.705638         0.583630         0.802489
 C        -1.301458         0.648754         2.273943
 C        -2.583505        -0.019422         1.767084
 C        -3.328963         0.800722         0.563592
 C        -2.777983         2.154951         0.142868
 C        -1.225314         1.877430         0.092344
 O        -2.805037        -0.286095        -0.506856
 C        -1.763762        -0.581677         0.517035
 H         1.219075         1.160581         0.672943
 H        -0.827478        -0.152020         2.800683
 H        -1.313314         1.498048         3.004363
 H        -3.312969        -0.479294         2.547751
 H        -4.413222         0.710049         0.434172
 H        -3.322021         2.239679        -0.760527
 H        -2.977850         2.831066         0.972126
 H        -0.653448         1.833466        -0.831317
 H        -0.629983         2.752258         0.477411
 H        -1.333779        -1.552543         0.335693
