19
Iteration:  3109charge 0 multiplicity 1
 O         0.667745         0.317986         0.664555
 C        -0.715826         0.559435         0.760466
 C        -1.330106         0.711671         2.195428
 C        -2.601978        -0.026284         1.698609
 C        -3.401902         0.755372         0.519251
 C        -2.718501         2.074261         0.279125
 C        -1.245145         1.789902        -0.006414
 O        -2.770024        -0.151999        -0.478936
 C        -1.765868        -0.572348         0.495204
 H         1.075766         1.121545         0.615215
 H        -0.772547        -0.134105         2.670749
 H        -1.086162         1.425537         2.996634
 H        -3.086675        -0.766284         2.436207
 H        -4.464615         0.763109         0.583788
 H        -3.184819         2.458164        -0.618950
 H        -2.854216         2.772813         1.129348
 H        -1.128185         1.401587        -1.040769
 H        -0.496783         2.686129         0.234157
 H        -1.390431        -1.570365         0.160419
