19
Iteration:  4367
 O         0.576532         0.255340         0.529460
 C        -0.720975         0.659812         0.781402
 C        -1.383032         0.747506         2.308907
 C        -2.605933        -0.107348         1.679309
 C        -3.382947         0.678806         0.655382
 C        -2.659712         1.997563         0.272097
 C        -1.172440         1.866184        -0.063257
 O        -2.784627        -0.130621        -0.471898
 C        -1.702546        -0.504585         0.461744
 H         1.302211         0.940573         0.859910
 H        -0.965467         0.039540         3.031072
 H        -1.649943         1.713109         2.759937
 H        -3.138032        -0.887363         2.229330
 H        -4.472292         0.685081         0.546663
 H        -3.110538         2.419564        -0.683411
 H        -2.583022         2.686608         1.180833
 H        -1.079077         1.453812        -1.075682
 H        -0.439572         2.761618         0.027142
 H        -1.381454        -1.546648         0.489647
