19
Iteration:  4331
 O         0.582457         0.323573         0.622563
 C        -0.699204         0.552209         0.714570
 C        -1.164283         0.657950         2.190914
 C        -2.533522         0.057976         1.604790
 C        -3.315741         0.727187         0.530986
 C        -2.718229         2.143607         0.219902
 C        -1.231145         1.912614         0.080745
 O        -2.861796        -0.311058        -0.463764
 C        -1.809988        -0.639104         0.515217
 H         0.921064         1.000626         1.336340
 H        -0.864897        -0.154853         2.854072
 H        -1.042894         1.593410         2.792675
 H        -3.101280        -0.469934         2.421566
 H        -4.385559         0.758263         0.635077
 H        -3.320466         2.715925        -0.527327
 H        -3.120705         2.686812         1.103202
 H        -1.032589         2.005524        -0.970463
 H        -0.778846         2.780983         0.511220
 H        -1.512744        -1.757560         0.443608
