19
Iteration:   803
 O         0.686743         0.365488         0.683622
 C        -0.673111         0.617260         0.781105
 C        -1.293194         0.682065         2.244946
 C        -2.595106         0.063829         1.654929
 C        -3.365074         0.758642         0.515128
 C        -2.766010         2.060462         0.273699
 C        -1.248913         1.761617        -0.113428
 O        -2.788354        -0.229567        -0.460413
 C        -1.808763        -0.641226         0.525963
 H         1.201753         1.282468         0.510291
 H        -0.703007        -0.120216         2.677343
 H        -1.187694         1.507640         2.975736
 H        -3.305319        -0.600919         2.368233
 H        -4.404231         0.689732         0.584999
 H        -3.291165         2.860916        -0.358263
 H        -2.755306         2.542897         1.246110
 H        -1.181562         1.529544        -1.158695
 H        -0.538510         2.480632        -0.078284
 H        -1.581652        -1.664092         0.509589
