19
Iteration:  1425charge 0 multiplicity 1
 O         0.528128         0.233239         0.614452
 C        -0.759727         0.624006         0.801161
 C        -1.332436         0.718669         2.218378
 C        -2.528266        -0.095493         1.648919
 C        -3.273926         0.715173         0.517293
 C        -2.719384         2.114098         0.199866
 C        -1.177614         1.982620         0.129485
 O        -2.765993        -0.271893        -0.426581
 C        -1.719859        -0.495819         0.500084
 H         0.481179         0.017662        -0.276081
 H        -0.891152        -0.002904         2.915287
 H        -1.384842         1.594364         2.675900
 H        -3.113258        -0.751197         2.238394
 H        -4.390288         0.734731         0.622852
 H        -3.311082         2.463317        -0.751589
 H        -3.026655         2.898864         0.898703
 H        -0.854901         1.990583        -0.940607
 H        -0.667999         2.782910         0.630276
 H        -1.272332        -1.554039         0.241877
