19
Iteration:  4108
 O         0.647309         0.357909         0.655474
 C        -0.810340         0.638498         0.818169
 C        -1.267886         0.572713         2.312969
 C        -2.545015        -0.048465         1.654212
 C        -3.342403         0.745039         0.585092
 C        -2.682795         2.097308         0.222640
 C        -1.166595         1.812706        -0.021115
 O        -2.815291        -0.184389        -0.484706
 C        -1.819554        -0.534042         0.422585
 H         1.015022         1.014691        -0.096987
 H        -0.826236        -0.112351         3.096270
 H        -1.435138         1.519148         2.856645
 H        -3.164376        -0.670583         2.257255
 H        -4.479218         0.732259         0.762691
 H        -3.253828         2.377453        -0.669776
 H        -2.808511         2.747800         1.122629
 H        -1.189240         1.424763        -1.086462
 H        -0.542111         2.652075         0.019903
 H        -1.386823        -1.548377         0.510215
