19
Iteration:  1082
 O         0.610540         0.210294         0.722166
 C        -0.763671         0.661831         0.734918
 C        -1.393113         0.826533         2.243782
 C        -2.449538        -0.103116         1.730891
 C        -3.321091         0.662494         0.666583
 C        -2.725945         2.069619         0.343568
 C        -1.230938         1.817524        -0.186585
 O        -2.780145        -0.128303        -0.468239
 C        -1.767264        -0.587094         0.350114
 H         1.197121         0.992938         1.021492
 H        -0.558500         0.529300         2.882306
 H        -1.795153         1.776843         2.622006
 H        -3.028798        -0.863570         2.327141
 H        -4.455989         0.614030         0.532965
 H        -3.379023         2.436375        -0.495182
 H        -2.646245         2.768276         1.076594
 H        -1.199977         1.496338        -1.195972
 H        -0.618712         2.734414        -0.175459
 H        -1.357190        -1.658201         0.182508
