19
Iteration:  4424
 O         0.694046         0.358787         0.666727
 C        -0.682518         0.586899         0.724622
 C        -1.263641         0.665487         2.182379
 C        -2.612865         0.038182         1.716374
 C        -3.336985         0.725197         0.507181
 C        -2.712762         2.017487         0.236149
 C        -1.192223         1.866151         0.081339
 O        -2.890707        -0.296107        -0.482874
 C        -1.815110        -0.557881         0.464511
 H         1.137527         0.977670         0.008753
 H        -1.047138        -0.203555         2.840292
 H        -1.267772         1.475578         2.917341
 H        -3.311606        -0.377000         2.419992
 H        -4.467859         0.749399         0.465335
 H        -3.158142         2.733944        -0.453504
 H        -2.832421         2.688316         1.168459
 H        -0.873221         2.002963        -1.012683
 H        -0.611918         2.688712         0.692063
 H        -1.402917        -1.528081         0.495724
