19
Iteration:  3371
 O         0.655105         0.321916         0.677517
 C        -0.728128         0.654723         0.794878
 C        -1.280681         0.594652         2.211233
 C        -2.576059        -0.098550         1.674604
 C        -3.337728         0.720561         0.577982
 C        -2.687203         2.145143         0.273213
 C        -1.214329         1.827075        -0.133552
 O        -2.889231        -0.144351        -0.468298
 C        -1.740211        -0.566581         0.457855
 H         1.070925         1.113966         1.155530
 H        -0.758219        -0.025553         2.992675
 H        -1.519320         1.528804         2.867571
 H        -3.196140        -0.878250         2.199980
 H        -4.446966         0.664591         0.697787
 H        -3.175916         2.503232        -0.630033
 H        -2.771709         2.734849         1.226283
 H        -1.010814         1.359872        -1.114311
 H        -0.717117         2.788492         0.016590
 H        -1.332352        -1.637078         0.398425
