19
Iteration:  1704
 O         0.666973         0.328526         0.499635
 C        -0.734135         0.555576         0.830916
 C        -1.215734         0.584883         2.268710
 C        -2.591482         0.045890         1.690056
 C        -3.374441         0.708783         0.500220
 C        -2.758852         2.091854         0.201337
 C        -1.275314         1.820543         0.130255
 O        -2.807625        -0.178282        -0.528056
 C        -1.767731        -0.545922         0.530458
 H         1.147475         0.828647         1.187184
 H        -0.949348        -0.274103         2.887365
 H        -1.053487         1.686261         2.824205
 H        -3.233728        -0.474757         2.421560
 H        -4.465312         0.638838         0.542799
 H        -3.058807         2.558920        -0.725242
 H        -3.034145         2.892829         0.907650
 H        -0.941241         1.717203        -0.854245
 H        -0.684467         2.658058         0.418596
 H        -1.240975        -1.461597         0.448714
