19
Iteration:  3793charge 0 multiplicity 1
 O         0.618679         0.377851         0.664874
 C        -0.777700         0.600790         0.761682
 C        -1.369730         0.734720         2.239307
 C        -2.612158        -0.087836         1.653181
 C        -3.304497         0.721263         0.509274
 C        -2.605838         2.177469         0.362091
 C        -1.257927         1.802563        -0.015398
 O        -2.772746        -0.230435        -0.433964
 C        -1.730560        -0.654761         0.458607
 H         0.851175         0.544806        -0.325543
 H        -0.682197         0.033850         2.846418
 H        -1.505973         1.773762         2.595850
 H        -3.384432        -0.564740         2.191908
 H        -4.357124         0.815349         0.489708
 H        -3.077846         2.742931        -0.523422
 H        -2.750427         2.540341         1.367783
 H        -1.228510         1.686989        -1.126385
 H        -0.464411         2.562259         0.070816
 H        -1.407724        -1.708834         0.538111
