19
Iteration:   389charge 0 multiplicity 1
 O         0.631806         0.449594         0.550342
 C        -0.740135         0.563547         0.843737
 C        -1.262001         0.616568         2.220090
 C        -2.583928         0.034391         1.676658
 C        -3.330806         0.761744         0.526291
 C        -2.775154         2.070112         0.104918
 C        -1.176718         1.829160         0.140557
 O        -2.793447        -0.225025        -0.424876
 C        -1.791873        -0.559766         0.535236
 H         0.896816        -0.463785         0.697981
 H        -0.762038        -0.018958         2.905391
 H        -1.171804         1.564812         2.727123
 H        -3.190241        -0.631136         2.307159
 H        -4.464003         0.703140         0.398384
 H        -3.182558         2.122665        -0.976754
 H        -3.119697         2.976179         0.569200
 H        -0.787368         1.670076        -0.849339
 H        -0.686943         2.602872         0.571317
 H        -1.393137        -1.580599         0.510209
