19
Iteration:  4407charge 0 multiplicity 1
 O         0.643363         0.255779         0.683032
 C        -0.790146         0.628820         0.747666
 C        -1.291994         0.635740         2.199145
 C        -2.565572         0.027418         1.667890
 C        -3.367660         0.692740         0.501102
 C        -2.728157         2.162515         0.298279
 C        -1.191028         1.937360         0.017737
 O        -2.775065        -0.255738        -0.463079
 C        -1.789368        -0.622259         0.510051
 H         1.124143         0.965601         0.266456
 H        -0.518564        -0.007123         2.620333
 H        -1.158805         1.691464         2.487671
 H        -3.121012        -0.739061         2.274002
 H        -4.448453         0.716238         0.613785
 H        -3.289099         2.523910        -0.566137
 H        -3.018492         2.727462         1.169220
 H        -1.038395         1.791800        -1.046353
 H        -0.680034         2.805298         0.337071
 H        -1.433088        -1.712936         0.463373
