19
Iteration:  4543
 O         0.603323         0.434026         0.670325
 C        -0.771808         0.611316         0.787674
 C        -1.299845         0.555896         2.316263
 C        -2.618742        -0.086951         1.673358
 C        -3.270786         0.754041         0.574996
 C        -2.688343         2.090090         0.219701
 C        -1.164918         1.803765        -0.021424
 O        -2.805408        -0.203799        -0.477969
 C        -1.818437        -0.538730         0.439498
 H         0.859469         0.812786        -0.114504
 H        -0.737136        -0.255520         2.877421
 H        -1.219240         1.554034         2.880379
 H        -3.270381        -0.561096         2.393902
 H        -4.360662         0.836077         0.503105
 H        -3.224589         2.348346        -0.741303
 H        -2.813439         2.973745         0.900744
 H        -0.775865         1.681271        -1.002681
 H        -0.522416         2.533933         0.494078
 H        -1.485239        -1.562767         0.292019
