19
Iteration:  4300charge 0 multiplicity 1
 O         0.626104         0.285723         0.447974
 C        -0.678352         0.612540         0.839983
 C        -1.343095         0.657515         2.304729
 C        -2.613049        -0.089118         1.687278
 C        -3.334632         0.706363         0.589711
 C        -2.715551         2.043095         0.137970
 C        -1.191373         1.916626         0.040212
 O        -2.813290        -0.187187        -0.413896
 C        -1.759342        -0.534391         0.506256
 H         1.156189         0.801062         0.996266
 H        -0.931503        -0.016973         3.060645
 H        -1.376907         1.594874         2.907846
 H        -3.197123        -0.791224         2.351001
 H        -4.411624         0.826766         0.760408
 H        -3.196072         2.434364        -0.871461
 H        -2.978673         2.922692         0.840449
 H        -0.900540         1.771986        -1.002678
 H        -0.682736         2.955393         0.305766
 H        -1.237044        -1.515855         0.264175
