19
Iteration:  1356
 O         0.646745         0.438699         0.642028
 C        -0.788099         0.600168         0.849524
 C        -1.321794         0.566365         2.296299
 C        -2.591381        -0.090884         1.732983
 C        -3.255027         0.768059         0.619466
 C        -2.641883         2.102308         0.227889
 C        -1.215529         1.818290        -0.159673
 O        -2.806593        -0.168900        -0.488842
 C        -1.833653        -0.618038         0.399739
 H         1.078641         1.237619         1.139878
 H        -0.739137        -0.170350         2.772331
 H        -1.265468         1.396926         2.907290
 H        -3.242333        -0.779522         2.375446
 H        -4.335786         0.797396         0.524787
 H        -3.312027         2.704947        -0.509657
 H        -2.882583         2.797630         1.154752
 H        -1.280254         1.324878        -1.089242
 H        -0.464993         2.632896        -0.290765
 H        -1.603377        -1.695469         0.404173
