19
Iteration:  3958charge 0 multiplicity 1
 O         0.728015         0.402449         0.728917
 C        -0.699024         0.643888         0.808128
 C        -1.345802         0.636710         2.215511
 C        -2.516772        -0.100956         1.639744
 C        -3.344566         0.696291         0.592483
 C        -2.661298         2.120841         0.221142
 C        -1.126944         1.859314        -0.000122
 O        -2.995307        -0.257494        -0.430965
 C        -1.852057        -0.582191         0.416360
 H         0.974916         0.593231        -0.243226
 H        -0.893436        -0.091674         2.951349
 H        -1.735238         1.583888         2.621084
 H        -3.193843        -0.542604         2.344487
 H        -4.401513         0.826168         0.681257
 H        -3.253051         2.503130        -0.710938
 H        -2.589931         2.859980         1.013798
 H        -0.841965         1.659709        -1.066686
 H        -0.427345         2.764832         0.177353
 H        -1.182767        -1.448837         0.192246
