19
Iteration:  3841
 O         0.657287         0.252755         0.679920
 C        -0.717458         0.638619         0.803376
 C        -1.230251         0.639490         2.220658
 C        -2.525020        -0.048957         1.665112
 C        -3.350239         0.756463         0.560513
 C        -2.772419         2.121397         0.144567
 C        -1.212834         1.851982         0.059312
 O        -2.916150        -0.228607        -0.474376
 C        -1.765934        -0.495389         0.477425
 H         1.302000         1.064060         0.638382
 H        -0.846482        -0.215420         2.739657
 H        -1.317265         1.590931         2.780831
 H        -3.001396        -0.676971         2.480685
 H        -4.492420         0.603579         0.608354
 H        -3.196520         2.161078        -0.816661
 H        -3.025476         2.873025         0.938324
 H        -0.928742         1.729579        -0.969232
 H        -0.572419         2.690748         0.349731
 H        -1.269295        -1.455783         0.228017
