19
Iteration:  3925
 O         0.600871         0.273325         0.688860
 C        -0.767343         0.616634         0.766324
 C        -1.287109         0.665989         2.163383
 C        -2.568907        -0.008496         1.709598
 C        -3.345971         0.706803         0.583921
 C        -2.683791         2.098280         0.270510
 C        -1.208637         1.838848        -0.029451
 O        -2.756712        -0.178474        -0.486383
 C        -1.814367        -0.573643         0.467586
 H         1.040145         1.020491         0.439314
 H        -0.685407        -0.074370         2.811140
 H        -1.356707         1.567789         2.808426
 H        -3.139965        -0.471911         2.480297
 H        -4.372506         0.443313         0.619049
 H        -3.441552         2.461925        -0.488753
 H        -2.834690         2.868044         1.029512
 H        -1.148856         1.545152        -1.105623
 H        -0.613332         2.790690         0.212008
 H        -1.215359        -1.488297         0.210603
