19
Iteration:  1486
 O         0.606121         0.467309         0.566311
 C        -0.783786         0.595324         0.799107
 C        -1.358233         0.615945         2.192028
 C        -2.603953        -0.052529         1.690928
 C        -3.228605         0.777416         0.561101
 C        -2.627271         2.120465         0.281574
 C        -1.146511         1.830858         0.014481
 O        -2.867429        -0.281754        -0.501468
 C        -1.818910        -0.590992         0.498682
 H         1.100283         0.198409         1.324863
 H        -0.856936        -0.208521         2.743653
 H        -1.273255         1.688424         2.838794
 H        -3.361672        -0.715832         2.206880
 H        -4.298712         0.786453         0.693625
 H        -3.156648         2.545503        -0.556754
 H        -2.880653         2.779283         1.150212
 H        -0.961674         1.667236        -1.049117
 H        -0.328075         2.587499         0.285778
 H        -1.373906        -1.534299         0.299261
