19
Iteration:  2242charge 0 multiplicity 1
 O         0.675753         0.468944         0.624474
 C        -0.713513         0.600345         0.847727
 C        -1.318688         0.707142         2.208767
 C        -2.608078        -0.127072         1.722882
 C        -3.343437         0.746714         0.549203
 C        -2.661155         2.041555         0.317550
 C        -1.258507         1.664279        -0.065274
 O        -2.787110        -0.118633        -0.464800
 C        -1.785787        -0.569466         0.489605
 H         0.744346         0.695762        -0.315999
 H        -0.710685         0.205069         3.036005
 H        -1.528715         1.756692         2.448832
 H        -3.166621        -0.879120         2.449377
 H        -4.472614         0.813977         0.466487
 H        -3.164403         2.707115        -0.258072
 H        -2.642731         2.611106         1.192835
 H        -1.340045         1.189361        -1.075886
 H        -0.554768         2.445595         0.004040
 H        -1.482685        -1.590285         0.096345
