19
Iteration:   537
 O         0.609573         0.283099         0.718013
 C        -0.788852         0.608169         0.728432
 C        -1.274966         0.723096         2.245018
 C        -2.541370        -0.012922         1.703831
 C        -3.349212         0.713579         0.604667
 C        -2.754988         2.047837         0.086598
 C        -1.168813         1.922379         0.064263
 O        -2.829216        -0.229812        -0.437586
 C        -1.715466        -0.556209         0.455339
 H         0.879125         0.223883        -0.213211
 H        -0.706356        -0.016548         2.855483
 H        -1.413800         1.762306         2.611178
 H        -3.172457        -0.698252         2.317896
 H        -4.404987         0.769976         0.686519
 H        -3.133046         2.219251        -0.910864
 H        -2.868290         2.922980         0.782374
 H        -0.807245         1.772024        -0.890517
 H        -0.761324         2.786363         0.630880
 H        -1.349678        -1.629038         0.429897
