19
Iteration:  3589charge 0 multiplicity 1
 O         0.696718         0.261190         0.545860
 C        -0.792670         0.583247         0.787586
 C        -1.230608         0.636477         2.221513
 C        -2.608863        -0.009286         1.753438
 C        -3.342068         0.727568         0.508801
 C        -2.800732         2.088427         0.160077
 C        -1.161808         1.946577         0.080211
 O        -2.804520        -0.250129        -0.469164
 C        -1.802699        -0.561068         0.517464
 H         1.283909         1.112781         0.781206
 H        -0.686109        -0.144587         2.718779
 H        -1.152127         1.592683         2.734127
 H        -3.291202        -0.517521         2.491255
 H        -4.447579         0.845628         0.704207
 H        -3.230032         2.440655        -0.775431
 H        -3.148852         2.880846         0.868308
 H        -0.926185         1.859865        -0.977820
 H        -0.794288         2.703113         0.787264
 H        -1.383719        -1.585261         0.522147
