19
Iteration:  1466charge 0 multiplicity 1
 O         0.669767         0.433783         0.511731
 C        -0.705572         0.559236         0.832038
 C        -1.253347         0.558668         2.293819
 C        -2.593580         0.041303         1.687171
 C        -3.381517         0.769253         0.474525
 C        -2.743506         2.094303         0.180282
 C        -1.215845         1.840786         0.111937
 O        -2.795768        -0.209919        -0.454555
 C        -1.829940        -0.595734         0.496615
 H         0.993349        -0.513253         0.809675
 H        -0.903107        -0.231422         2.971607
 H        -1.232305         1.668883         2.813425
 H        -3.084438        -0.649363         2.371088
 H        -4.463057         0.706023         0.399019
 H        -3.031152         2.608637        -0.769294
 H        -3.040580         2.907914         0.866512
 H        -0.764462         1.859023        -0.862312
 H        -0.739683         2.748777         0.527564
 H        -1.414208        -1.577502         0.473045
