19
Iteration:  2154
 O         0.574910         0.316211         0.331549
 C        -0.728369         0.579569         0.807955
 C        -1.315727         0.693916         2.345193
 C        -2.580588        -0.034978         1.760516
 C        -3.394315         0.686505         0.518675
 C        -2.743322         2.098964         0.116078
 C        -1.161147         1.869092         0.110093
 O        -2.744773        -0.197067        -0.394538
 C        -1.743775        -0.587670         0.619197
 H         1.279076         1.068774         0.567896
 H        -0.893255        -0.054151         3.095705
 H        -1.609567         1.713201         2.680162
 H        -3.266382        -0.769626         2.406997
 H        -4.544403         0.635795         0.484357
 H        -2.954551         2.313055        -0.879318
 H        -3.077182         2.903405         0.731252
 H        -0.738638         1.956926        -0.965847
 H        -0.522249         2.589779         0.633064
 H        -1.324327        -1.615009         0.354515
