19
Iteration:  1336charge 0 multiplicity 1
 O         0.589942         0.320792         0.549821
 C        -0.729700         0.640979         0.803652
 C        -1.341695         0.629474         2.244351
 C        -2.574968        -0.090927         1.660404
 C        -3.337708         0.731872         0.552120
 C        -2.667679         2.086642         0.259595
 C        -1.192006         1.862071        -0.037146
 O        -2.825820        -0.236698        -0.440332
 C        -1.750357        -0.505712         0.505976
 H         1.101802         0.813727         1.138282
 H        -0.769286        -0.067826         2.875005
 H        -1.540794         1.438053         2.865990
 H        -3.183152        -0.647925         2.373802
 H        -4.458161         0.801250         0.578362
 H        -3.057578         2.562643        -0.746095
 H        -2.796937         2.823859         1.092286
 H        -0.960264         1.745314        -1.093399
 H        -0.680216         2.741572         0.380485
 H        -1.130434        -1.496051         0.347087
