19
Iteration:  1214charge 0 multiplicity 1
 O         0.668372         0.303504         0.808159
 C        -0.748945         0.632544         0.729188
 C        -1.288619         0.740139         2.147585
 C        -2.498704        -0.048612         1.667757
 C        -3.306661         0.726187         0.574491
 C        -2.711166         2.061828         0.371459
 C        -1.221151         1.806914        -0.130840
 O        -2.863672        -0.242363        -0.488636
 C        -1.853587        -0.576336         0.402536
 H         1.157067         1.227461         0.649634
 H        -0.623672         0.157154         2.785003
 H        -1.348083         1.679533         2.651196
 H        -3.309173        -0.520794         2.307048
 H        -4.406921         0.639247         0.760435
 H        -3.250504         2.715257        -0.395411
 H        -2.832052         2.660864         1.241444
 H        -1.229237         1.628227        -1.164704
 H        -0.510551         2.648196         0.100686
 H        -1.352299        -1.616368         0.244805
