19
Iteration:  2355
 O         0.645037         0.396661         0.636443
 C        -0.690510         0.651313         0.780022
 C        -1.256626         0.568045         2.215779
 C        -2.612457         0.082315         1.641674
 C        -3.361967         0.742022         0.522431
 C        -2.735193         2.068915         0.269281
 C        -1.262133         1.817758        -0.016566
 O        -2.795731        -0.297688        -0.451040
 C        -1.753852        -0.549925         0.542305
 H         0.913374         0.789185        -0.208800
 H        -0.756825        -0.246334         2.713421
 H        -1.119598         1.421415         2.903555
 H        -3.243933        -0.517059         2.231688
 H        -4.448871         0.731987         0.756336
 H        -3.243546         2.809036        -0.335075
 H        -2.737620         2.560199         1.201346
 H        -1.288824         1.470934        -1.098955
 H        -0.640769         2.712836         0.259548
 H        -1.323658        -1.564106         0.589193
