19
Iteration:  1894
 O         0.607176         0.258389         0.524668
 C        -0.834994         0.675245         0.790915
 C        -1.289544         0.658719         2.332570
 C        -2.624769        -0.056930         1.677664
 C        -3.324196         0.685982         0.548230
 C        -2.677614         2.108572         0.249852
 C        -1.199776         1.984975         0.106022
 O        -2.708500        -0.241301        -0.471597
 C        -1.772935        -0.547756         0.514411
 H         0.841003         0.452598        -0.476082
 H        -0.728484        -0.186481         2.932239
 H        -1.401256         1.737863         2.851535
 H        -3.257552        -0.812797         2.186822
 H        -4.419877         0.658003         0.432182
 H        -3.087665         2.170909        -0.860936
 H        -3.063826         2.925363         0.899435
 H        -1.036074         1.843458        -1.006200
 H        -0.579847         2.746919         0.508774
 H        -1.331566        -1.597556         0.490398
