19
Iteration:  1070
 O         0.596878         0.220685         0.714870
 C        -0.703642         0.661742         0.717809
 C        -1.348906         0.823252         2.184057
 C        -2.523990        -0.092389         1.668209
 C        -3.312714         0.699525         0.607886
 C        -2.729000         2.028105         0.350276
 C        -1.266940         1.771007        -0.162905
 O        -2.797125        -0.147221        -0.481514
 C        -1.701897        -0.520572         0.488061
 H         1.315311         0.953173         0.906777
 H        -0.877981         0.179845         2.929237
 H        -1.659625         1.798654         2.555668
 H        -3.116934        -0.760008         2.431438
 H        -4.428183         0.663066         0.828771
 H        -3.280636         2.696030        -0.354532
 H        -2.811564         2.498800         1.210138
 H        -1.348167         1.463494        -1.210237
 H        -0.679101         2.683885         0.007785
 H        -1.237413        -1.487478         0.155926
