19
Iteration:  3646
 O         0.566195         0.268422         0.544285
 C        -0.773237         0.674539         0.830008
 C        -1.424398         0.711507         2.267209
 C        -2.529724        -0.134958         1.694642
 C        -3.322611         0.762345         0.587973
 C        -2.700250         2.061221         0.318239
 C        -1.198804         1.804996        -0.118881
 O        -2.755827        -0.193523        -0.460730
 C        -1.692715        -0.548120         0.468836
 H         1.120564         0.871538         0.949565
 H        -0.878061         0.092096         2.934227
 H        -1.661884         1.684753         2.755816
 H        -2.922601        -0.843514         2.532182
 H        -4.400039         1.040515         0.522940
 H        -3.188745         2.584406        -0.489112
 H        -2.720931         2.805042         1.137099
 H        -1.075230         1.742063        -1.204178
 H        -0.542305         2.720509        -0.045716
 H        -1.372378        -1.564340         0.426730
