19
Iteration:   190
 O         0.650568         0.428220         0.888838
 C        -0.746199         0.669352         0.743894
 C        -1.345820         0.689692         2.257094
 C        -2.490584        -0.170405         1.641509
 C        -3.279047         0.777027         0.638902
 C        -2.684866         2.181170         0.315560
 C        -1.232838         1.760832        -0.267011
 O        -2.890042        -0.197441        -0.431876
 C        -1.729619        -0.617587         0.359354
 H         0.840997        -0.259897         0.320603
 H        -0.819712         0.040339         2.898381
 H        -1.573282         1.638288         2.726879
 H        -3.123450        -0.925663         2.203251
 H        -4.429288         0.843736         0.836711
 H        -3.326378         2.654316        -0.539492
 H        -2.679614         2.798476         1.129615
 H        -1.393391         1.297954        -1.314208
 H        -0.563497         2.619454        -0.460306
 H        -1.364834        -1.554372         0.065458
