19
Iteration:  1526
 O         0.662070         0.205069         0.743392
 C        -0.740010         0.643377         0.767972
 C        -1.313189         0.732932         2.166452
 C        -2.546898        -0.060167         1.595921
 C        -3.288148         0.689388         0.621932
 C        -2.753224         2.138519         0.380132
 C        -1.250365         1.787104        -0.094425
 O        -2.852036        -0.139238        -0.497704
 C        -1.738506        -0.512360         0.363113
 H         1.053103         0.738066         1.559393
 H        -0.775294         0.094402         2.867389
 H        -1.387522         1.605991         2.550431
 H        -2.956514        -0.784344         2.333885
 H        -4.409405         0.730411         0.651689
 H        -3.312535         2.465071        -0.510570
 H        -2.766123         2.752651         1.287389
 H        -1.292308         1.418595        -1.132209
 H        -0.744523         2.752563        -0.010627
 H        -1.180988        -1.536218         0.291586
