19
Iteration:  2698
 O         0.693798         0.304371         0.542484
 C        -0.726210         0.631598         0.763308
 C        -1.297811         0.633609         2.274205
 C        -2.589408         0.080415         1.788084
 C        -3.344696         0.702146         0.431507
 C        -2.786829         2.120087         0.321165
 C        -1.241036         1.856176         0.000529
 O        -2.763894        -0.264925        -0.470421
 C        -1.803146        -0.596702         0.504082
 H         1.126286         1.100437         0.694386
 H        -0.802767        -0.254960         2.778839
 H        -1.409681         1.574781         2.907297
 H        -3.145875        -0.493185         2.426942
 H        -4.451118         0.684402         0.457450
 H        -3.158661         2.656350        -0.612590
 H        -2.873651         2.582708         1.322793
 H        -1.092702         1.623940        -1.073748
 H        -0.602410         2.674304         0.045485
 H        -1.372044        -1.594481         0.339762
