19
Iteration:  2286charge 0 multiplicity 1
 O         0.625450         0.311579         0.690037
 C        -0.749187         0.688709         0.742968
 C        -1.175016         0.633251         2.225004
 C        -2.502024        -0.013893         1.696515
 C        -3.371065         0.704072         0.537450
 C        -2.749418         2.035865         0.202504
 C        -1.197167         2.010331         0.033277
 O        -2.882919        -0.319199        -0.424828
 C        -1.796397        -0.539663         0.463083
 H         0.872540         0.090449        -0.168475
 H        -0.543559        -0.156290         2.761090
 H        -1.185224         1.560938         2.821969
 H        -3.292908        -0.586668         2.339260
 H        -4.498715         0.681075         0.491085
 H        -3.133138         2.579043        -0.596654
 H        -3.021553         2.701439         1.026530
 H        -0.860317         1.859993        -1.005003
 H        -0.945989         2.925335         0.448392
 H        -1.164991        -1.442399         0.272243
