19
Iteration:  3939
 O         0.591113         0.337822         0.740678
 C        -0.775446         0.623037         0.760072
 C        -1.273005         0.678021         2.247062
 C        -2.533663        -0.103264         1.694056
 C        -3.299848         0.755479         0.587375
 C        -2.716849         2.063184         0.256265
 C        -1.182105         1.823843        -0.074779
 O        -2.897077        -0.209234        -0.482296
 C        -1.750718        -0.555688         0.432906
 H         1.134615         1.035150         0.159377
 H        -0.642951        -0.002534         2.882215
 H        -1.226995         1.768667         2.661748
 H        -3.143004        -0.921377         2.209310
 H        -4.399190         1.071437         0.615741
 H        -2.938964         2.477589        -0.735990
 H        -2.869248         2.727209         1.170999
 H        -0.981411         1.675457        -1.117147
 H        -0.545351         2.639687         0.318736
 H        -1.494520        -1.631361         0.308103
