19
Iteration:   726charge 0 multiplicity 1
 O         0.635443         0.267826         0.603342
 C        -0.740283         0.597047         0.757284
 C        -1.202013         0.694439         2.236060
 C        -2.582593         0.106787         1.691653
 C        -3.383682         0.693798         0.443276
 C        -2.850867         2.103588         0.208720
 C        -1.254926         1.908170         0.093833
 O        -2.701781        -0.274981        -0.441568
 C        -1.751412        -0.521112         0.590238
 H         0.714667        -0.385972        -0.029355
 H        -0.830098        -0.124244         2.812729
 H        -1.188597         1.622587         2.814614
 H        -3.286992        -0.499479         2.431832
 H        -4.405855         0.469090         0.409113
 H        -3.157649         2.418513        -0.895494
 H        -3.096613         2.902348         0.945514
 H        -0.934181         1.858691        -0.943426
 H        -0.659287         2.648735         0.549690
 H        -1.276048        -1.467897         0.503994
