19
Iteration:  2119charge 0 multiplicity 1
 O         0.573970         0.260106         0.637129
 C        -0.699687         0.671266         0.745930
 C        -1.288985         0.691926         2.138129
 C        -2.591344         0.062728         1.697796
 C        -3.333288         0.654425         0.505164
 C        -2.741490         2.131139         0.366181
 C        -1.223772         1.847320        -0.067559
 O        -2.790429        -0.271711        -0.433595
 C        -1.713410        -0.570089         0.512964
 H         1.271322         1.065276         0.631873
 H        -0.753713        -0.028923         2.775695
 H        -1.352044         1.603526         2.877943
 H        -3.184493        -0.563710         2.426267
 H        -4.423258         0.556206         0.624158
 H        -3.178055         2.575269        -0.465704
 H        -3.046194         2.664892         1.263595
 H        -1.394263         1.530162        -1.075204
 H        -0.565601         2.740593        -0.079115
 H        -1.182431        -1.510137         0.416070
