19
Iteration:  4903charge 0 multiplicity 1
 O         0.811947         0.298434         0.783092
 C        -0.705702         0.670205         0.812961
 C        -1.314506         0.594962         2.161092
 C        -2.587375        -0.046062         1.724122
 C        -3.393351         0.718400         0.545672
 C        -2.739276         2.083114         0.273706
 C        -1.222846         1.923654        -0.048020
 O        -2.842881        -0.179861        -0.520647
 C        -1.854545        -0.561844         0.471390
 H         1.040314         0.289601        -0.101220
 H        -0.827935        -0.221342         2.698045
 H        -1.383668         1.504695         2.733296
 H        -3.094097        -0.814267         2.360208
 H        -4.487603         0.883058         0.491207
 H        -3.300765         2.476121        -0.602929
 H        -2.889672         2.822975         1.053601
 H        -1.175327         1.558527        -1.100633
 H        -0.722995         2.853126         0.123690
 H        -1.223334        -1.519195         0.300911
