19
Iteration:  4268
 O         0.520698         0.217887         0.568434
 C        -0.789921         0.601418         0.804624
 C        -1.300411         0.756315         2.241125
 C        -2.557739        -0.122093         1.739151
 C        -3.293273         0.705684         0.520356
 C        -2.725684         2.114503         0.274944
 C        -1.224980         1.916049         0.005241
 O        -2.715359        -0.208528        -0.495062
 C        -1.770391        -0.567521         0.512405
 H         1.072988         1.093188         0.476498
 H        -0.737479         0.044072         2.835329
 H        -1.387661         1.750619         2.723240
 H        -3.195660        -0.794515         2.372016
 H        -4.355661         0.717472         0.746553
 H        -3.119787         2.598809        -0.661921
 H        -2.757287         2.755143         1.192217
 H        -1.094688         1.685311        -1.055412
 H        -0.584856         2.885821         0.254995
 H        -1.155477        -1.430305         0.203990
