19
Iteration:   385
 O         0.614643         0.465060         0.542124
 C        -0.720304         0.559407         0.864575
 C        -1.265139         0.603099         2.251799
 C        -2.597108         0.035867         1.724135
 C        -3.370197         0.739992         0.542453
 C        -2.756267         2.071245         0.097788
 C        -1.175198         1.825659         0.091019
 O        -2.788083        -0.208695        -0.470035
 C        -1.768439        -0.565738         0.519836
 H         0.945238        -0.425536         0.830057
 H        -0.789181        -0.144173         2.931563
 H        -1.228378         1.569611         2.763804
 H        -3.175501        -0.637951         2.437364
 H        -4.450249         0.708356         0.473416
 H        -3.138456         2.178938        -0.932139
 H        -3.089815         2.964783         0.657298
 H        -0.781738         1.628278        -0.975820
 H        -0.550584         2.749701         0.436552
 H        -1.509896        -1.600601         0.560160
