19
Iteration:  3173
 O         0.627296         0.148880         0.583879
 C        -0.764265         0.645223         0.763109
 C        -1.283453         0.743766         2.206402
 C        -2.582127        -0.032109         1.682602
 C        -3.308197         0.699536         0.529598
 C        -2.769585         1.999670         0.219536
 C        -1.184845         1.957984         0.134811
 O        -2.786328        -0.224876        -0.511164
 C        -1.776026        -0.496116         0.494091
 H         1.243971         0.875347         0.598949
 H        -0.814604        -0.012783         2.906129
 H        -1.428835         1.761836         2.701204
 H        -3.099564        -0.720734         2.313251
 H        -4.401389         0.882050         0.654421
 H        -3.211060         2.485295        -0.629708
 H        -3.141434         2.544140         1.167948
 H        -0.895938         2.222226        -0.876304
 H        -0.658762         2.798112         0.591348
 H        -1.400829        -1.528667         0.477393
