19
Iteration:   836
 O         0.482181         0.242920         0.425899
 C        -0.778677         0.662777         0.839200
 C        -1.329627         0.729202         2.328648
 C        -2.562951        -0.036334         1.720878
 C        -3.304321         0.724785         0.523772
 C        -2.715243         2.081673         0.128395
 C        -1.150195         1.939292         0.088295
 O        -2.706696        -0.276862        -0.442064
 C        -1.721376        -0.566052         0.572574
 H         1.177517         0.906715         0.558949
 H        -0.723890         0.013798         2.886192
 H        -1.578384         1.639531         2.908030
 H        -3.336372        -0.743386         2.293121
 H        -4.367511         0.665659         0.517179
 H        -3.242028         2.338454        -0.811316
 H        -3.073424         2.752959         0.893189
 H        -0.905170         1.670196        -0.925912
 H        -0.614430         2.732720         0.511099
 H        -1.369717        -1.544553         0.439956
