19
Iteration:  1812
 O         0.573326         0.463534         0.740872
 C        -0.746492         0.642073         0.789322
 C        -1.340205         0.573209         2.289567
 C        -2.595202        -0.153815         1.710922
 C        -3.238942         0.789780         0.560695
 C        -2.600851         2.117798         0.345955
 C        -1.238664         1.793923        -0.151205
 O        -2.816819        -0.153059        -0.575127
 C        -1.793296        -0.659804         0.472025
 H         0.820518         0.898360        -0.143074
 H        -0.724626        -0.049492         2.823895
 H        -1.362985         1.416758         2.811394
 H        -3.257624        -0.717343         2.388235
 H        -4.329577         0.920837         0.511857
 H        -3.146560         2.730108        -0.315906
 H        -2.611604         2.661737         1.346743
 H        -1.304599         1.362415        -1.230040
 H        -0.401580         2.595293        -0.043105
 H        -1.517644        -1.703760         0.431276
