19
Iteration:  2669
 O         0.594292         0.379656         0.672996
 C        -0.792597         0.648870         0.732844
 C        -1.320091         0.642264         2.258646
 C        -2.555845        -0.042945         1.703872
 C        -3.268045         0.705860         0.557432
 C        -2.666377         2.089102         0.288032
 C        -1.226140         1.782107        -0.105313
 O        -2.870736        -0.173715        -0.439803
 C        -1.720087        -0.608368         0.479853
 H         1.081810         1.171829         0.574037
 H        -0.713121        -0.119273         2.728933
 H        -1.549519         1.523585         2.806551
 H        -3.066855        -0.931480         2.270984
 H        -4.325224         0.749475         0.810192
 H        -3.105399         2.540075        -0.583970
 H        -2.701221         2.962099         0.980866
 H        -1.167266         1.411491        -1.160369
 H        -0.453001         2.736704        -0.007886
 H        -1.366713        -1.625436         0.305714
