19
Iteration:  4314
 O         0.701524         0.306445         0.534540
 C        -0.767340         0.642673         0.749171
 C        -1.241848         0.619768         2.220283
 C        -2.608062         0.005228         1.781784
 C        -3.385420         0.718259         0.526021
 C        -2.747948         2.069158         0.189073
 C        -1.179152         1.899057         0.082948
 O        -2.847858        -0.261828        -0.455497
 C        -1.804650        -0.526372         0.486862
 H         1.319212         0.853543         1.209386
 H        -0.592023        -0.174050         2.646609
 H        -1.283012         1.606851         2.694859
 H        -3.246486        -0.589848         2.406688
 H        -4.511774         0.615681         0.429347
 H        -3.107110         2.345079        -0.815626
 H        -2.981052         2.765142         1.057687
 H        -0.844606         1.814659        -0.982973
 H        -0.574491         2.728849         0.631901
 H        -1.403149        -1.498985         0.454914
