19
Iteration:  4063
 O         0.619869         0.347074         0.703772
 C        -0.673354         0.576268         0.770888
 C        -1.317072         0.632053         2.160933
 C        -2.539422        -0.026344         1.726192
 C        -3.259212         0.755063         0.530628
 C        -2.708502         2.105475         0.254485
 C        -1.145112         1.896838         0.023687
 O        -2.901985        -0.274652        -0.491239
 C        -1.863486        -0.619039         0.469741
 H         1.075902         1.133186         0.169979
 H        -0.618055         0.086640         2.822583
 H        -1.280145         1.627760         2.652361
 H        -3.101848        -0.782437         2.257114
 H        -4.387285         0.861970         0.706175
 H        -3.184300         2.557683        -0.626922
 H        -2.957394         2.815751         1.110237
 H        -1.136090         1.883289        -1.066864
 H        -0.668694         2.766475         0.354869
 H        -1.531229        -1.644284         0.420999
