19
Iteration:  1688
 O         0.628754         0.341674         0.598129
 C        -0.725104         0.586878         0.764757
 C        -1.299193         0.630588         2.220843
 C        -2.571154         0.011822         1.670451
 C        -3.315526         0.766295         0.512311
 C        -2.755019         2.123812         0.301250
 C        -1.217683         1.816620        -0.034921
 O        -2.763690        -0.197388        -0.449710
 C        -1.806985        -0.604884         0.475536
 H         1.150521         0.908493         1.301872
 H        -0.614628        -0.047824         2.757193
 H        -1.336597         1.484382         2.730411
 H        -3.181535        -0.686032         2.267817
 H        -4.426256         0.668734         0.570629
 H        -3.326594         2.686459        -0.490696
 H        -2.809981         2.525925         1.312166
 H        -1.124654         1.570547        -1.140154
 H        -0.625523         2.657180         0.398862
 H        -1.631553        -1.731446         0.423851
