19
Iteration:  3185
 O         0.632457         0.124153         0.622761
 C        -0.687268         0.633346         0.767393
 C        -1.302099         0.766238         2.256734
 C        -2.497495        -0.012448         1.684659
 C        -3.366334         0.669231         0.522846
 C        -2.757341         2.091609         0.293327
 C        -1.270798         1.968580         0.052361
 O        -2.800729        -0.174861        -0.511869
 C        -1.784092        -0.600841         0.421992
 H         1.358536         0.866979         0.864030
 H        -0.680511         0.096383         2.918197
 H        -1.355604         1.787801         2.785069
 H        -3.131433        -0.635384         2.376855
 H        -4.437457         0.464496         0.387640
 H        -3.174594         2.422636        -0.659492
 H        -3.071318         2.900244         1.053892
 H        -1.035081         1.865859        -1.002372
 H        -0.841585         2.781476         0.685988
 H        -1.329316        -1.618380         0.256283
