19
Iteration:  4075
 O         0.748502         0.372950         0.748179
 C        -0.785963         0.564887         0.715232
 C        -1.211316         0.573781         2.225285
 C        -2.566121        -0.026245         1.670312
 C        -3.379218         0.761974         0.620701
 C        -2.723864         2.101198         0.180953
 C        -1.187671         1.918279        -0.043253
 O        -2.879716        -0.241460        -0.449138
 C        -1.863168        -0.591879         0.444962
 H         1.111654         1.179007         0.335159
 H        -0.687408        -0.249148         2.779768
 H        -1.391414         1.498410         2.739174
 H        -3.212354        -0.539814         2.353860
 H        -4.501613         0.691586         0.522770
 H        -3.293022         2.582278        -0.630678
 H        -2.791053         2.763566         1.109823
 H        -0.785180         1.654840        -1.030073
 H        -0.528867         2.650464         0.337646
 H        -1.588964        -1.644462         0.367981
