19
Iteration:  4659
 O         0.615781         0.405544         0.786915
 C        -0.807568         0.564461         0.752777
 C        -1.186693         0.551490         2.249020
 C        -2.585838        -0.083067         1.727020
 C        -3.358471         0.743389         0.534742
 C        -2.694813         2.182407         0.212668
 C        -1.226982         1.834015        -0.025689
 O        -2.783612        -0.161250        -0.534416
 C        -1.825988        -0.555356         0.474709
 H         0.978991         0.474072        -0.087027
 H        -0.706433        -0.215520         2.799826
 H        -0.983213         1.477625         2.746210
 H        -3.236771        -0.582304         2.406357
 H        -4.445784         0.617054         0.611317
 H        -3.249997         2.483977        -0.663834
 H        -2.928496         2.787131         1.079553
 H        -1.013790         1.513591        -1.231216
 H        -0.501111         2.605613         0.221568
 H        -1.369408        -1.594662         0.418114
