19
Iteration:  2645charge 0 multiplicity 1
 O         0.686596         0.293264         0.652427
 C        -0.732992         0.648128         0.817997
 C        -1.295648         0.747916         2.203101
 C        -2.579420        -0.155513         1.718147
 C        -3.362258         0.718436         0.674147
 C        -2.700965         2.051397         0.233578
 C        -1.186355         1.862576        -0.052108
 O        -2.872891        -0.217920        -0.481386
 C        -1.794980        -0.578415         0.415926
 H         1.107254         1.074799         0.298887
 H        -0.717790         0.393959         3.080121
 H        -1.710503         1.738482         2.290101
 H        -3.141385        -0.954759         2.228019
 H        -4.420806         0.810877         0.882820
 H        -3.206382         2.596300        -0.562198
 H        -2.729557         2.908266         0.945911
 H        -0.836600         1.672958        -1.089356
 H        -0.615116         2.833419         0.332607
 H        -1.294038        -1.507326         0.167664
