19
Iteration:  2189
 O         0.566765         0.221776         0.619724
 C        -0.762253         0.682296         0.698729
 C        -1.191043         0.673241         2.250703
 C        -2.469945        -0.016348         1.711675
 C        -3.377265         0.678553         0.530837
 C        -2.775651         2.083475         0.125682
 C        -1.159987         2.018550         0.108001
 O        -2.894455        -0.331985        -0.445994
 C        -1.769285        -0.540097         0.517426
 H         1.178763         0.983641         0.363847
 H        -0.635848        -0.084582         2.895462
 H        -1.116018         1.565856         2.830963
 H        -3.053617        -0.644654         2.458078
 H        -4.510426         0.628756         0.634777
 H        -3.182894         2.492061        -0.844840
 H        -3.059733         2.863909         0.836077
 H        -0.786808         2.150168        -1.007779
 H        -0.675166         2.699936         0.814374
 H        -1.232660        -1.540577         0.358058
