19
Iteration:  1985
 O         0.636735         0.299145         0.687857
 C        -0.743462         0.774028         0.843358
 C        -1.336981         0.711072         2.210614
 C        -2.532526        -0.155872         1.683062
 C        -3.301421         0.704077         0.640586
 C        -2.713524         2.071614         0.276627
 C        -1.175562         1.863809        -0.037719
 O        -2.864713        -0.248227        -0.509401
 C        -1.766461        -0.522666         0.425480
 H         0.571481        -0.241524        -0.244766
 H        -0.610696         0.265115         2.911498
 H        -1.745789         1.793372         2.508938
 H        -3.071354        -0.681063         2.441574
 H        -4.375017         0.780510         0.732570
 H        -3.254335         2.386640        -0.647913
 H        -2.822235         2.901997         0.996303
 H        -0.974576         1.509674        -1.010811
 H        -0.500935         2.779079         0.095684
 H        -1.105053        -1.344839         0.301804
