19
Iteration:  2995
 O         0.567589         0.312472         0.532816
 C        -0.790853         0.653040         0.795857
 C        -1.285751         0.654138         2.293309
 C        -2.566673        -0.036929         1.727652
 C        -3.295656         0.691105         0.537875
 C        -2.670812         2.126348         0.187436
 C        -1.145641         1.902550         0.044242
 O        -2.849260        -0.307520        -0.478625
 C        -1.791644        -0.554175         0.526266
 H         1.147488         1.065866         0.778719
 H        -0.561680        -0.171662         2.675131
 H        -1.391196         1.602747         2.902123
 H        -3.291850        -0.615688         2.224727
 H        -4.415160         0.774533         0.566323
 H        -3.132979         2.474874        -0.763107
 H        -2.976308         2.876670         0.929165
 H        -0.837427         1.782691        -1.027108
 H        -0.592544         2.670615         0.654188
 H        -1.257517        -1.463069         0.275562
