19
Iteration:  1285
 O         0.552052         0.139396         0.532740
 C        -0.761879         0.633986         0.733869
 C        -1.291501         0.695584         2.222972
 C        -2.616844        -0.018843         1.713684
 C        -3.309583         0.680490         0.528333
 C        -2.817216         2.093851         0.197040
 C        -1.190543         1.966782         0.142750
 O        -2.685064        -0.225834        -0.453456
 C        -1.769667        -0.523610         0.526529
 H         1.219198         0.940404         0.432472
 H        -0.658683         0.060096         2.945682
 H        -1.280527         1.693470         2.901058
 H        -3.099836        -0.784704         2.278886
 H        -4.409926         0.683483         0.513834
 H        -3.225780         2.496216        -0.672142
 H        -3.021457         2.861408         0.964457
 H        -0.799481         1.987294        -0.944665
 H        -0.718893         2.804069         0.651851
 H        -1.168695        -1.391699         0.311520
