19
Iteration:  4580charge 0 multiplicity 1
 O         0.693543         0.316228         0.692285
 C        -0.759699         0.621116         0.797955
 C        -1.223084         0.564116         2.257540
 C        -2.619745         0.021733         1.732530
 C        -3.387553         0.771630         0.537891
 C        -2.797824         2.090214         0.168952
 C        -1.155618         1.892244         0.079310
 O        -2.820997        -0.218490        -0.492676
 C        -1.772114        -0.545204         0.425816
 H         1.202818         0.364993        -0.054223
 H        -0.673503        -0.239131         2.761022
 H        -1.110190         1.408045         2.887262
 H        -3.283565        -0.728984         2.189217
 H        -4.486044         0.618249         0.461394
 H        -3.308809         2.248549        -0.763589
 H        -3.064000         2.877132         0.916865
 H        -0.904647         1.932311        -1.017108
 H        -0.772635         2.823866         0.544726
 H        -1.347404        -1.539258         0.324152
