19
Iteration:  3433charge 0 multiplicity 1
 O         0.644701         0.205211         0.521322
 C        -0.744238         0.568572         0.802856
 C        -1.251206         0.718697         2.195375
 C        -2.623528         0.049659         1.685951
 C        -3.378221         0.701098         0.501139
 C        -2.757366         2.069016         0.294013
 C        -1.274479         1.855786         0.136271
 O        -2.732924        -0.259049        -0.497057
 C        -1.743700        -0.510477         0.505574
 H         1.284989         0.916953         0.647826
 H        -0.750134        -0.092033         2.796240
 H        -1.360290         1.545702         2.828802
 H        -3.229482        -0.358679         2.443115
 H        -4.511442         0.651209         0.361799
 H        -3.171630         2.609183        -0.573973
 H        -2.914644         2.891225         1.042192
 H        -1.107600         2.247123        -0.925294
 H        -0.726989         2.832714         0.465370
 H        -1.203073        -1.506566         0.502888
