19
Iteration:  4563charge 0 multiplicity 1
 O         0.711183         0.334684         0.698142
 C        -0.685114         0.594055         0.860083
 C        -1.249266         0.481240         2.261873
 C        -2.527945        -0.029596         1.672757
 C        -3.370421         0.763438         0.522407
 C        -2.765363         2.135437         0.078030
 C        -1.278389         1.897123         0.080486
 O        -2.856095        -0.152917        -0.472265
 C        -1.790314        -0.559238         0.505575
 H         0.745028         0.792779        -0.171429
 H        -0.784559        -0.311693         2.910836
 H        -1.251985         1.347207         3.061295
 H        -3.157731        -0.708310         2.277537
 H        -4.440333         0.777960         0.694873
 H        -2.982381         2.414677        -1.002762
 H        -3.115288         2.905653         0.775563
 H        -1.084258         1.607048        -0.966328
 H        -0.664245         2.783234         0.153477
 H        -1.316929        -1.587120         0.323514
