19
Iteration:  2486
 O         0.661011         0.403294         0.530340
 C        -0.738406         0.532315         0.776266
 C        -1.354632         0.730681         2.300783
 C        -2.589285        -0.032992         1.708308
 C        -3.297609         0.720603         0.577858
 C        -2.749245         2.086379         0.281268
 C        -1.210566         1.775678         0.018292
 O        -2.782576        -0.179430        -0.466666
 C        -1.757687        -0.610723         0.517437
 H         0.885774         0.765443        -0.426376
 H        -0.895719         0.025427         3.022019
 H        -1.445238         1.793210         2.690858
 H        -3.273665        -0.679104         2.289286
 H        -4.426539         0.685878         0.583793
 H        -3.201676         2.345952        -0.692560
 H        -2.750890         2.888051         1.060894
 H        -1.079687         1.592634        -1.067644
 H        -0.509831         2.552739         0.235680
 H        -1.360941        -1.657548         0.564027
