19
Iteration:  1541charge 0 multiplicity 1
 O         0.576008         0.189785         0.698055
 C        -0.710396         0.624426         0.767843
 C        -1.260922         0.704008         2.207027
 C        -2.473949        -0.064382         1.688599
 C        -3.379011         0.718027         0.560881
 C        -2.762903         2.063247         0.296612
 C        -1.272096         1.898519        -0.011142
 O        -2.769732        -0.124157        -0.522864
 C        -1.757917        -0.573897         0.430154
 H         1.180017         0.753543         1.069679
 H        -0.654956         0.103899         2.881154
 H        -1.423566         1.746013         2.667677
 H        -3.126613        -0.718571         2.325924
 H        -4.456976         0.624951         0.636750
 H        -3.166421         2.559240        -0.584351
 H        -2.991677         2.865049         1.051564
 H        -1.210062         1.643283        -1.076687
 H        -0.550128         2.820754         0.176027
 H        -1.468754        -1.575730         0.204792
