19
Iteration:  3911charge 0 multiplicity 1
 O         0.651614         0.200678         0.560667
 C        -0.720504         0.622145         0.779092
 C        -1.347490         0.674362         2.271750
 C        -2.613214         0.001736         1.742545
 C        -3.327327         0.696431         0.512403
 C        -2.817220         2.121816         0.278596
 C        -1.272834         1.851591        -0.038335
 O        -2.724750        -0.154055        -0.490792
 C        -1.692468        -0.582526         0.547806
 H         1.293096         1.046800         0.608439
 H        -0.770027        -0.091956         2.809814
 H        -1.409734         1.639229         2.676483
 H        -3.272467        -0.622242         2.336674
 H        -4.432222         0.754049         0.530786
 H        -2.991360         2.780912        -0.545455
 H        -2.898162         2.621828         1.223988
 H        -1.109456         1.699834        -1.157593
 H        -0.645946         2.754319         0.144423
 H        -1.475196        -1.644649         0.562991
