19
Iteration:  3790
 O         0.611326         0.384778         0.653649
 C        -0.775499         0.593638         0.748776
 C        -1.344369         0.737380         2.267268
 C        -2.615309        -0.074366         1.626664
 C        -3.294148         0.732481         0.511243
 C        -2.609200         2.141380         0.349975
 C        -1.260861         1.814616        -0.003816
 O        -2.772584        -0.235156        -0.453201
 C        -1.739536        -0.642625         0.476682
 H         0.903129         0.400245        -0.201266
 H        -0.790022         0.066268         2.958709
 H        -1.459432         1.767806         2.580130
 H        -3.384012        -0.546630         2.319130
 H        -4.398862         0.669533         0.482832
 H        -3.117128         2.840320        -0.412623
 H        -2.767310         2.518308         1.382742
 H        -1.243308         1.714507        -1.120488
 H        -0.424912         2.553505         0.042392
 H        -1.443709        -1.691032         0.481332
