19
Iteration:  2551charge 0 multiplicity 1
 O         0.690871         0.394634         0.722737
 C        -0.719993         0.614784         0.723899
 C        -1.274141         0.726977         2.236069
 C        -2.513081        -0.071147         1.681620
 C        -3.373781         0.722310         0.594079
 C        -2.695614         2.065308         0.254770
 C        -1.199506         1.850918        -0.011241
 O        -2.878566        -0.215710        -0.437100
 C        -1.828381        -0.599210         0.465312
 H         0.967105         0.022897        -0.208811
 H        -0.557725         0.145414         2.784252
 H        -1.435501         1.797733         2.476302
 H        -3.015168        -0.942322         2.262738
 H        -4.496363         0.683219         0.510414
 H        -3.327821         2.434977        -0.570120
 H        -3.036809         2.790674         1.026430
 H        -1.013007         1.717695        -1.055000
 H        -0.703792         2.674286         0.221495
 H        -1.497012        -1.585465         0.097640
