19
Iteration:  4758charge 0 multiplicity 1
 O         0.657177         0.364006         0.706041
 C        -0.770463         0.646667         0.810623
 C        -1.270724         0.635573         2.262689
 C        -2.624083         0.011332         1.654818
 C        -3.359043         0.730740         0.504923
 C        -2.721694         2.078307         0.328386
 C        -1.212486         1.748824        -0.005705
 O        -2.767973        -0.142417        -0.552665
 C        -1.779984        -0.550423         0.482725
 H         0.915587         0.054514        -0.132789
 H        -0.850881        -0.131356         2.855038
 H        -1.327223         1.534569         2.860300
 H        -3.073070        -0.766701         2.245430
 H        -4.436801         0.618453         0.455460
 H        -3.230204         2.720473        -0.392982
 H        -2.524285         2.565125         1.268434
 H        -1.093671         1.532891        -1.057024
 H        -0.704500         2.626455         0.228035
 H        -1.415212        -1.586253         0.195332
