19
Iteration:  2948
 O         0.611290         0.210501         0.713928
 C        -0.736193         0.622647         0.731525
 C        -1.283429         0.726438         2.149551
 C        -2.519962        -0.043491         1.711741
 C        -3.337035         0.700732         0.539361
 C        -2.751647         2.022422         0.324130
 C        -1.279755         1.836227        -0.040495
 O        -2.786258        -0.112882        -0.490061
 C        -1.724016        -0.516145         0.450242
 H         1.172123         0.906300         0.547877
 H        -0.735287         0.028870         2.878616
 H        -1.459716         1.821416         2.520692
 H        -3.012718        -0.628512         2.593076
 H        -4.499742         0.580435         0.622995
 H        -3.223710         2.677907        -0.483903
 H        -2.872432         2.586190         1.243544
 H        -1.178684         1.475026        -1.055921
 H        -0.771398         2.721894         0.202254
 H        -1.408400        -1.603262         0.391466
