19
Iteration:  3237
 O         0.652009         0.430390         0.588077
 C        -0.726894         0.610783         0.811015
 C        -1.357368         0.577010         2.259943
 C        -2.617295        -0.079620         1.734868
 C        -3.330712         0.759117         0.569308
 C        -2.640177         2.128570         0.277718
 C        -1.144421         1.826669        -0.100932
 O        -2.869398        -0.231403        -0.488153
 C        -1.798109        -0.585234         0.422904
 H         1.105392         1.056351         1.271606
 H        -0.853419        -0.225327         2.877523
 H        -1.412017         1.611491         2.610914
 H        -3.277989        -0.578196         2.346748
 H        -4.451764         0.647444         0.601130
 H        -3.254761         2.864563        -0.220813
 H        -2.760956         2.521660         1.326165
 H        -1.016860         1.354993        -1.081541
 H        -0.398625         2.533768         0.070886
 H        -1.198897        -1.500456         0.329375
