19
Iteration:  1967charge 0 multiplicity 1
 O         0.603395         0.330164         0.841329
 C        -0.738439         0.617475         0.702609
 C        -1.307588         0.717437         2.271526
 C        -2.462448        -0.093733         1.681609
 C        -3.349065         0.703949         0.600266
 C        -2.701609         2.082654         0.245725
 C        -1.243306         1.857186        -0.152505
 O        -2.874000        -0.175550        -0.398584
 C        -1.705666        -0.510813         0.364847
 H         1.099023         0.046186        -0.066864
 H        -0.735600         0.017396         2.821531
 H        -1.385522         1.604302         2.752120
 H        -3.090176        -0.948531         2.050423
 H        -4.454399         0.651988         0.720123
 H        -3.187301         2.514778        -0.564418
 H        -2.786913         2.647166         1.178028
 H        -1.294208         1.584795        -1.229213
 H        -0.663551         2.790412        -0.005162
 H        -1.449840        -1.548688         0.140804
