19
Iteration:  1411
 O         0.616894         0.247561         0.645810
 C        -0.790676         0.703890         0.787655
 C        -1.330049         0.695512         2.278614
 C        -2.562698        -0.076218         1.717482
 C        -3.319053         0.708249         0.536480
 C        -2.703264         2.103823         0.242809
 C        -1.136163         1.957587         0.045918
 O        -2.856421        -0.264348        -0.500533
 C        -1.759902        -0.596864         0.439850
 H         1.100331         0.416360        -0.273115
 H        -0.565833         0.321029         2.919102
 H        -1.603455         1.692583         2.628370
 H        -3.233796        -0.775931         2.257905
 H        -4.407558         0.674448         0.495566
 H        -3.063315         2.586063        -0.693855
 H        -2.928745         2.582987         1.221510
 H        -0.882318         1.853397        -0.979240
 H        -0.578182         2.784027         0.542888
 H        -1.162578        -1.506114         0.411354
