19
Iteration:  4437charge 0 multiplicity 1
 O         0.715223         0.431161         0.625401
 C        -0.740368         0.569887         0.805560
 C        -1.314098         0.605560         2.290239
 C        -2.620281         0.049320         1.689003
 C        -3.389154         0.715390         0.496677
 C        -2.660894         2.084424         0.214665
 C        -1.130334         1.871307         0.115772
 O        -2.911174        -0.295872        -0.462953
 C        -1.801407        -0.595531         0.430810
 H         0.887351         0.752165        -0.272438
 H        -0.674428        -0.081654         2.935671
 H        -1.193755         1.658014         2.654543
 H        -3.134024        -0.674179         2.362021
 H        -4.526925         0.794581         0.538164
 H        -2.967314         2.467905        -0.765482
 H        -2.931565         2.739022         1.114856
 H        -0.823981         1.722419        -0.996652
 H        -0.557693         2.800236         0.520249
 H        -1.442626        -1.632554         0.239452
