19
Iteration:  2306
 O         0.634868         0.254934         0.616439
 C        -0.738576         0.652416         0.773593
 C        -1.316016         0.717698         2.183559
 C        -2.489580        -0.097352         1.689985
 C        -3.312895         0.663382         0.643167
 C        -2.778029         2.070318         0.127788
 C        -1.153496         1.982375         0.143939
 O        -2.897814        -0.259859        -0.423093
 C        -1.750480        -0.476404         0.428389
 H         0.835549         0.399012        -0.389723
 H        -0.730210         0.129819         2.971069
 H        -1.409208         1.703949         2.680927
 H        -2.929204        -0.935054         2.427710
 H        -4.412587         0.730222         0.774351
 H        -3.191177         1.945723        -0.917598
 H        -3.251053         3.011761         0.586831
 H        -0.753198         2.007047        -0.850316
 H        -0.600753         2.713420         0.757074
 H        -1.259394        -1.461411         0.422904
