19
Iteration:  4735charge 0 multiplicity 1
 O         0.600005         0.217739         0.705746
 C        -0.729505         0.586283         0.759529
 C        -1.286812         0.589733         2.180700
 C        -2.645275        -0.027439         1.735498
 C        -3.256327         0.717427         0.509889
 C        -2.776516         2.198746         0.285892
 C        -1.277072         1.988682         0.008329
 O        -2.684080        -0.172408        -0.501285
 C        -1.725539        -0.591306         0.520965
 H         0.860063         0.292906        -0.278223
 H        -0.789019        -0.022276         2.894375
 H        -1.462605         1.561483         2.622421
 H        -3.146015        -0.720519         2.367692
 H        -4.341015         0.615166         0.492079
 H        -3.322430         2.450683        -0.627444
 H        -3.099346         2.851448         1.107148
 H        -1.253034         1.917104        -1.024719
 H        -0.613548         2.754196         0.305875
 H        -1.491145        -1.653986         0.303868
