19
Iteration:  4428
 O         0.715804         0.395084         0.645756
 C        -0.714973         0.582542         0.730152
 C        -1.300833         0.637006         2.249358
 C        -2.601865         0.073109         1.733714
 C        -3.406443         0.698645         0.505660
 C        -2.639263         2.044572         0.210084
 C        -1.181238         1.869335         0.120090
 O        -2.900348        -0.299669        -0.479403
 C        -1.789008        -0.581105         0.413222
 H         1.116341         0.862870        -0.084002
 H        -0.954930        -0.264834         2.880782
 H        -1.199729         1.662751         2.821227
 H        -3.288138        -0.473931         2.464502
 H        -4.512418         0.856381         0.486273
 H        -3.162684         2.662843        -0.540241
 H        -2.840305         2.656206         1.127705
 H        -0.901527         1.889668        -0.981410
 H        -0.656479         2.712782         0.618656
 H        -1.419191        -1.668833         0.433500
