19
Iteration:  3011charge 0 multiplicity 1
 O         0.615537         0.331276         0.509205
 C        -0.733363         0.578643         0.818713
 C        -1.197740         0.553886         2.259415
 C        -2.634591         0.058942         1.706114
 C        -3.380211         0.781503         0.508748
 C        -2.764603         2.051804         0.142970
 C        -1.197115         1.918607         0.104559
 O        -2.746998        -0.251787        -0.456547
 C        -1.808715        -0.586344         0.518596
 H         1.042886         1.014875         0.923358
 H        -0.940999        -0.101882         3.012004
 H        -0.909870         1.407370         2.819641
 H        -3.124940        -0.624051         2.502276
 H        -4.448139         0.725107         0.418626
 H        -3.115139         2.406278        -0.817453
 H        -3.005979         2.768832         0.958922
 H        -0.970065         1.867268        -0.978460
 H        -0.726117         2.925439         0.332162
 H        -1.477674        -1.633020         0.706777
