19
Iteration:   938charge 0 multiplicity 1
 O         0.710145         0.364602         0.611838
 C        -0.782538         0.581756         0.784854
 C        -1.419672         0.719435         2.273669
 C        -2.547029        -0.050823         1.655228
 C        -3.327521         0.778310         0.558357
 C        -2.638126         2.047637         0.387554
 C        -1.231221         1.727201        -0.136914
 O        -2.792840        -0.186455        -0.462649
 C        -1.776238        -0.600080         0.471631
 H         0.950478         1.388267         0.623179
 H        -0.863692         0.307954         3.117883
 H        -1.627471         1.728503         2.627556
 H        -3.280105        -0.651343         2.392017
 H        -4.455412         0.611398         0.495460
 H        -3.266620         2.692420        -0.391412
 H        -2.643047         2.578771         1.380121
 H        -1.206198         1.343382        -1.204148
 H        -0.649123         2.612656        -0.127941
 H        -1.337355        -1.591450         0.204240
