19
Iteration:  3479charge 0 multiplicity 1
 O         0.578094         0.340774         0.567149
 C        -0.791810         0.665371         0.780067
 C        -1.364602         0.603864         2.269722
 C        -2.592568        -0.099281         1.714655
 C        -3.243101         0.746015         0.570244
 C        -2.675226         2.102978         0.228497
 C        -1.187067         1.826198        -0.019517
 O        -2.853377        -0.196176        -0.435213
 C        -1.713060        -0.576803         0.480746
 H         1.278099         1.072145         0.419226
 H        -0.827779        -0.070439         2.954111
 H        -1.403408         1.573576         2.735548
 H        -3.208469        -0.876662         2.150229
 H        -4.307384         0.785365         0.897494
 H        -3.126934         2.397916        -0.688808
 H        -2.974661         2.970669         0.874186
 H        -0.680313         1.694028        -1.000732
 H        -0.692855         2.815678         0.285529
 H        -1.223726        -1.582606         0.406154
