19
Iteration:  2248charge 0 multiplicity 1
 O         0.673928         0.486597         0.625966
 C        -0.738768         0.600429         0.805396
 C        -1.276004         0.682782         2.205598
 C        -2.636919        -0.147289         1.693729
 C        -3.379289         0.783866         0.531792
 C        -2.638765         2.067452         0.350054
 C        -1.278461         1.668150        -0.029226
 O        -2.735163        -0.164006        -0.427127
 C        -1.834275        -0.598251         0.467092
 H         0.846772         0.566364        -0.288827
 H        -0.779221         0.188796         2.996913
 H        -1.441604         1.769137         2.397088
 H        -3.183202        -0.631375         2.450363
 H        -4.438934         0.815738         0.495656
 H        -3.239040         2.674513        -0.513438
 H        -2.569062         2.689786         1.337859
 H        -1.329786         1.309839        -1.051627
 H        -0.590098         2.590914        -0.116569
 H        -1.278414        -1.502668         0.263299
