19
Iteration:   243charge 0 multiplicity 1
 O         0.687894         0.264670         0.537748
 C        -0.708662         0.573175         0.770716
 C        -1.290952         0.709388         2.196155
 C        -2.593066         0.068354         1.687717
 C        -3.294288         0.743016         0.436731
 C        -2.771703         2.096557         0.206252
 C        -1.245645         1.893027         0.208958
 O        -2.775273        -0.323479        -0.464355
 C        -1.793938        -0.573603         0.610787
 H         0.848168         0.723506        -0.264171
 H        -0.948043         0.104783         3.005232
 H        -1.485533         1.755166         2.475114
 H        -3.265208        -0.497994         2.370131
 H        -4.415008         0.700585         0.610079
 H        -2.994416         2.522303        -0.826671
 H        -3.187684         2.784904         0.993143
 H        -0.939431         1.875805        -0.848139
 H        -0.806135         2.724529         0.589513
 H        -1.397958        -1.563750         0.750930
