19
Iteration:  4531charge 0 multiplicity 1
 O         0.611996         0.406891         0.696660
 C        -0.788089         0.578552         0.768780
 C        -1.351643         0.648206         2.140851
 C        -2.581512        -0.089688         1.731121
 C        -3.346177         0.725472         0.533382
 C        -2.569135         2.087532         0.293675
 C        -1.150486         1.861339         0.001248
 O        -2.802022        -0.205398        -0.496112
 C        -1.840872        -0.601957         0.516612
 H         0.862584         0.773170        -0.241130
 H        -0.718441        -0.032156         2.784118
 H        -1.558549         1.612510         2.747445
 H        -3.175702        -0.838029         2.240036
 H        -4.432888         0.756140         0.590840
 H        -3.009730         2.630904        -0.618131
 H        -2.758965         2.670012         1.204235
 H        -1.071397         1.854485        -1.062467
 H        -0.610246         2.733822         0.357366
 H        -1.326738        -1.582619         0.403186
