19
Iteration:  2288charge 0 multiplicity 1
 O         0.619344         0.303825         0.690939
 C        -0.745410         0.689400         0.734909
 C        -1.172741         0.640611         2.236498
 C        -2.508776        -0.020374         1.703902
 C        -3.398051         0.702267         0.550224
 C        -2.742363         2.035057         0.208243
 C        -1.192959         2.014451         0.050929
 O        -2.884135        -0.324037        -0.426720
 C        -1.779042        -0.536393         0.460215
 H         0.913042         0.078236        -0.263584
 H        -0.551804        -0.130199         2.727657
 H        -1.219037         1.583475         2.783653
 H        -3.235541        -0.588427         2.280551
 H        -4.513448         0.665024         0.479275
 H        -3.051844         2.552791        -0.676970
 H        -3.058175         2.760598         0.907092
 H        -0.892715         1.870951        -1.041810
 H        -0.896770         2.977637         0.471571
 H        -1.162450        -1.432932         0.212967
