19
Iteration:  1081
 O         0.608101         0.210298         0.722695
 C        -0.758411         0.659479         0.731205
 C        -1.392589         0.830283         2.235375
 C        -2.451145        -0.093534         1.727231
 C        -3.322372         0.664307         0.669380
 C        -2.730166         2.064784         0.348529
 C        -1.230732         1.810806        -0.183331
 O        -2.779030        -0.125743        -0.469839
 C        -1.762376        -0.589333         0.354158
 H         1.251113         0.999424         1.021815
 H        -0.594189         0.552729         2.907704
 H        -1.783759         1.748709         2.673813
 H        -3.061734        -0.892324         2.330607
 H        -4.436105         0.621404         0.526598
 H        -3.375045         2.464602        -0.482000
 H        -2.658837         2.703569         1.064543
 H        -1.219146         1.498975        -1.233071
 H        -0.623913         2.731846        -0.183041
 H        -1.364731        -1.631001         0.177045
