19
Iteration:  3740
 O         0.609762         0.321297         0.663213
 C        -0.746267         0.600457         0.827241
 C        -1.304845         0.576037         2.254203
 C        -2.494652        -0.052701         1.721664
 C        -3.287925         0.765063         0.604435
 C        -2.786223         2.121681         0.126625
 C        -1.216583         1.965269         0.030661
 O        -2.812444        -0.224893        -0.442921
 C        -1.731371        -0.556748         0.412235
 H         0.712856        -0.356724        -0.133718
 H        -0.672328        -0.008986         2.985649
 H        -1.456252         1.613804         2.597203
 H        -3.117411        -0.696322         2.267206
 H        -4.396737         0.713862         0.671418
 H        -3.390406         2.317988        -0.779382
 H        -3.245347         2.941389         0.697140
 H        -0.712001         2.057264        -0.923024
 H        -0.676646         2.809023         0.447496
 H        -1.360421        -1.642584         0.364661
