19
Iteration:  4271charge 0 multiplicity 1
 O         0.501464         0.218453         0.553709
 C        -0.773821         0.597340         0.795312
 C        -1.308434         0.759709         2.264416
 C        -2.562939        -0.132544         1.738225
 C        -3.267766         0.707031         0.539486
 C        -2.737700         2.133631         0.251436
 C        -1.222162         1.906420         0.028509
 O        -2.712393        -0.215463        -0.499703
 C        -1.766210        -0.554300         0.487286
 H         1.003488         1.093384         0.518563
 H        -0.630720         0.124611         2.899524
 H        -1.474801         1.689889         2.820803
 H        -3.173011        -0.761161         2.358844
 H        -4.352256         0.743517         0.790940
 H        -3.082456         2.540341        -0.646058
 H        -2.769658         2.792318         1.114135
 H        -1.103974         1.662241        -1.046186
 H        -0.586596         2.764115         0.224059
 H        -1.165822        -1.396640         0.278978
