19
Iteration:  3055charge 0 multiplicity 1
 O         0.534223         0.239869         0.573129
 C        -0.735376         0.654139         0.787268
 C        -1.336495         0.683508         2.203760
 C        -2.569419        -0.075129         1.684301
 C        -3.303269         0.689881         0.525000
 C        -2.663758         2.049438         0.276392
 C        -1.207941         1.959203         0.006720
 O        -2.793160        -0.236024        -0.454914
 C        -1.762366        -0.500396         0.527701
 H         1.210982         0.775665         0.839558
 H        -0.724546         0.318192         2.993991
 H        -1.610440         1.652694         2.567067
 H        -3.220508        -0.795639         2.325386
 H        -4.345957         0.669337         0.715238
 H        -3.166839         2.389883        -0.629517
 H        -2.878660         2.752273         1.096036
 H        -0.819544         1.714134        -0.981903
 H        -0.425901         2.735949         0.191951
 H        -1.312158        -1.490075         0.291062
