19
Iteration:   885charge 0 multiplicity 1
 O         0.632309         0.228512         0.623300
 C        -0.731324         0.677796         0.777754
 C        -1.270904         0.665508         2.253686
 C        -2.532845         0.006879         1.700448
 C        -3.325236         0.709303         0.531108
 C        -2.741223         2.071382         0.137853
 C        -1.191628         1.956749         0.028780
 O        -2.900273        -0.293958        -0.451656
 C        -1.757978        -0.526477         0.498858
 H         1.249857         1.018070         0.811030
 H        -0.785592        -0.169684         2.763491
 H        -1.096729         1.607795         2.733422
 H        -3.064610        -0.630429         2.324378
 H        -4.444146         0.539467         0.688629
 H        -3.245560         2.423971        -0.846868
 H        -3.094983         2.750369         1.009996
 H        -0.846464         1.925563        -0.995807
 H        -0.838174         2.736202         0.700164
 H        -1.311388        -1.576577         0.357259
