19
Iteration:  2028charge 0 multiplicity 1
 O         0.671262         0.373478         0.560744
 C        -0.729415         0.589542         0.822548
 C        -1.186296         0.652689         2.198839
 C        -2.649309         0.104094         1.690994
 C        -3.349666         0.748767         0.482179
 C        -2.776372         2.120946         0.183101
 C        -1.267528         1.873681         0.183561
 O        -2.735638        -0.361379        -0.483530
 C        -1.811035        -0.608036         0.585075
 H         0.596114         0.105446        -0.435984
 H        -0.732505        -0.275487         2.661627
 H        -0.960839         1.635298         2.878769
 H        -3.236527        -0.452249         2.369054
 H        -4.417224         0.633290         0.487959
 H        -3.074405         2.793885        -0.731698
 H        -3.076305         2.881106         0.958501
 H        -0.991630         1.851928        -0.849879
 H        -0.792512         2.808271         0.556517
 H        -1.420130        -1.640813         0.554327
