19
Iteration:  3932charge 0 multiplicity 1
 O         0.582282         0.305233         0.722727
 C        -0.777500         0.625832         0.765246
 C        -1.244401         0.690839         2.210837
 C        -2.537364        -0.067087         1.689675
 C        -3.312712         0.714449         0.597379
 C        -2.713024         2.077879         0.286609
 C        -1.202178         1.819054        -0.049899
 O        -2.796305        -0.200086        -0.476387
 C        -1.834153        -0.554625         0.425640
 H         1.060956         1.051249         0.345297
 H        -0.832823        -0.122417         2.756447
 H        -1.280141         1.656574         2.650727
 H        -3.174476        -0.613540         2.403007
 H        -4.430484         0.869687         0.510457
 H        -3.262329         2.392296        -0.604084
 H        -2.809696         2.864431         1.033356
 H        -0.969949         1.695966        -1.137285
 H        -0.514889         2.627670         0.185008
 H        -1.283758        -1.468816         0.252854
