19
Iteration:    89charge 0 multiplicity 1
 O         0.580361         0.273658         0.449418
 C        -0.740338         0.600929         0.811015
 C        -1.268495         0.701446         2.275587
 C        -2.581614        -0.044302         1.757160
 C        -3.305053         0.730559         0.514191
 C        -2.735173         2.043278         0.068544
 C        -1.187652         1.976618         0.144736
 O        -2.781846        -0.253374        -0.453965
 C        -1.810320        -0.556854         0.537920
 H         1.190461         0.224733         1.257517
 H        -0.704730         0.160321         3.046279
 H        -1.275701         1.703588         2.698270
 H        -3.236204        -0.588746         2.424477
 H        -4.418262         0.777074         0.541986
 H        -3.196743         2.185294        -0.875019
 H        -3.107707         2.761223         0.755939
 H        -0.729301         2.101371        -0.839153
 H        -0.893074         2.725918         0.850366
 H        -1.238216        -1.482433         0.328951
