19
Iteration:  1692charge 0 multiplicity 1
 O         0.643799         0.347292         0.585755
 C        -0.738380         0.580921         0.772011
 C        -1.272888         0.608964         2.206515
 C        -2.568996         0.023468         1.673661
 C        -3.314193         0.740733         0.504691
 C        -2.776102         2.130054         0.257328
 C        -1.228358         1.796159         0.004582
 O        -2.779410        -0.180001        -0.459959
 C        -1.790092        -0.582243         0.496424
 H         1.154240         0.821793         1.200371
 H        -0.707143        -0.120739         2.820239
 H        -1.260705         1.663334         2.887366
 H        -3.284033        -0.640263         2.234431
 H        -4.399338         0.582870         0.638020
 H        -3.173653         2.703054        -0.532500
 H        -2.820979         2.517083         1.289966
 H        -1.112308         1.600360        -1.003679
 H        -0.712598         2.589706         0.437814
 H        -1.619291        -1.651819         0.459608
