19
Iteration:  1359charge 0 multiplicity 1
 O         0.653878         0.447763         0.663086
 C        -0.768009         0.565609         0.854600
 C        -1.301452         0.568124         2.285261
 C        -2.584122        -0.110939         1.734058
 C        -3.275222         0.776122         0.608236
 C        -2.648161         2.133622         0.239035
 C        -1.242218         1.801483        -0.171227
 O        -2.801474        -0.170841        -0.490977
 C        -1.848369        -0.595499         0.395515
 H         1.020864         1.289784         1.121812
 H        -0.695256        -0.200074         2.833763
 H        -1.310409         1.405300         2.935250
 H        -3.166585        -0.692997         2.415999
 H        -4.388473         0.843271         0.498836
 H        -3.245703         2.695185        -0.606981
 H        -2.759478         2.730732         1.161780
 H        -1.342360         1.294620        -1.155303
 H        -0.528110         2.610197        -0.246786
 H        -1.585704        -1.749822         0.377482
