19
Iteration:  1099
 O         0.558788         0.271115         0.691442
 C        -0.783932         0.648391         0.752123
 C        -1.315042         0.724076         2.172995
 C        -2.485314        -0.177792         1.725053
 C        -3.282101         0.705933         0.635691
 C        -2.692609         2.106391         0.197548
 C        -1.210938         1.863265        -0.100853
 O        -2.868069        -0.205339        -0.454475
 C        -1.717276        -0.540075         0.479112
 H         1.191072         0.983281         1.094243
 H        -0.757076         0.302405         3.025213
 H        -1.517581         1.745115         2.613122
 H        -3.076205        -0.880064         2.375231
 H        -4.334479         0.744899         0.825212
 H        -3.202169         2.471829        -0.696874
 H        -2.976741         2.941631         1.048842
 H        -1.128368         1.643162        -1.230339
 H        -0.574122         2.735954         0.093689
 H        -1.208034        -1.394359         0.156669
