19
Iteration:    17charge 0 multiplicity 1
 O         0.651713         0.521953         0.650894
 C        -0.774702         0.566420         0.790094
 C        -1.407236         0.656161         2.230886
 C        -2.606907        -0.116604         1.685663
 C        -3.241359         0.846620         0.625949
 C        -2.621955         2.172328         0.337723
 C        -1.282625         1.719662        -0.167151
 O        -2.792518        -0.229517        -0.451074
 C        -1.720584        -0.647692         0.456136
 H         0.960952        -0.454562         0.878458
 H        -0.824245         0.315602         3.111332
 H        -1.642827         1.708972         2.551690
 H        -3.387994        -0.664742         2.249583
 H        -4.349575         0.866722         0.620685
 H        -3.191568         2.579918        -0.635945
 H        -2.642813         2.917650         1.159348
 H        -1.454679         1.129081        -1.158380
 H        -0.465968         2.496250        -0.232718
 H        -1.255508        -1.610555         0.187240
