19
Iteration:  4230
 O         0.757823         0.349173         0.693776
 C        -0.754295         0.625179         0.812682
 C        -1.300371         0.655960         2.202993
 C        -2.561629        -0.006460         1.626700
 C        -3.372065         0.757804         0.552762
 C        -2.690518         2.138945         0.348582
 C        -1.236996         1.820725         0.011455
 O        -2.893356        -0.291552        -0.528310
 C        -1.793317        -0.600902         0.452790
 H         1.076400         0.972837         0.085319
 H        -0.819303         0.026959         3.026368
 H        -1.126554         1.670797         2.612434
 H        -3.107379        -0.680776         2.297563
 H        -4.504922         0.731098         0.513214
 H        -3.164588         2.704965        -0.496853
 H        -2.952654         2.694650         1.262171
 H        -1.158195         1.544232        -1.072688
 H        -0.606342         2.667448         0.181367
 H        -1.333014        -1.636507         0.287818
