19
Iteration:  2057charge 0 multiplicity 1
 O         0.625375         0.380869         0.631399
 C        -0.759011         0.623218         0.765888
 C        -1.290173         0.590937         2.278051
 C        -2.590888        -0.069988         1.730215
 C        -3.308000         0.744578         0.590052
 C        -2.729424         2.087552         0.127230
 C        -1.182182         1.846304        -0.013516
 O        -2.859734        -0.247962        -0.445046
 C        -1.731952        -0.519473         0.552794
 H         0.873296         0.900740        -0.240965
 H        -0.589922        -0.074576         2.791854
 H        -1.396974         1.517020         2.707777
 H        -3.228743        -0.776868         2.353901
 H        -4.414506         0.740488         0.731761
 H        -3.110987         2.502913        -0.828035
 H        -2.787492         2.838133         0.915901
 H        -0.868554         1.713441        -1.119985
 H        -0.726697         2.740440         0.376184
 H        -1.278147        -1.551019         0.405698
