19
Iteration:   730charge 0 multiplicity 1
 O         0.642845         0.266383         0.640080
 C        -0.765701         0.627868         0.736463
 C        -1.205148         0.690600         2.243460
 C        -2.591854         0.055974         1.722503
 C        -3.365089         0.726963         0.463559
 C        -2.840709         2.088958         0.203981
 C        -1.247331         1.897329         0.066804
 O        -2.733731        -0.276476        -0.457679
 C        -1.742020        -0.497887         0.585940
 H         0.803449        -0.470958        -0.075505
 H        -0.769801        -0.141216         2.848312
 H        -1.088870         1.575961         2.858233
 H        -3.286159        -0.451170         2.350645
 H        -4.492530         0.402962         0.477081
 H        -3.137470         2.413530        -0.847941
 H        -3.261250         2.839093         0.877479
 H        -0.856707         1.888722        -1.027237
 H        -0.550490         2.783976         0.408647
 H        -1.185600        -1.436347         0.382468
