19
Iteration:  1865
 O         0.675411         0.204538         0.711484
 C        -0.773562         0.613216         0.719539
 C        -1.210200         0.662847         2.246642
 C        -2.488304         0.038870         1.720864
 C        -3.338078         0.659705         0.563108
 C        -2.822691         2.055508         0.168084
 C        -1.258206         1.995893         0.151487
 O        -2.801469        -0.193989        -0.520676
 C        -1.808850        -0.535000         0.386698
 H         0.960300        -0.041914        -0.158004
 H        -0.704595         0.010099         2.957427
 H        -1.381255         1.660877         2.640269
 H        -3.108875        -0.574129         2.392060
 H        -4.406071         0.415940         0.649267
 H        -3.312447         2.587900        -0.621881
 H        -3.137385         2.800651         0.958282
 H        -0.766240         2.129264        -0.827219
 H        -0.656163         2.833844         0.671959
 H        -1.445037        -1.568726         0.246479
