19
Iteration:  2663
 O         0.603259         0.380136         0.673289
 C        -0.788971         0.628606         0.720499
 C        -1.385830         0.665977         2.254960
 C        -2.503708        -0.108650         1.709629
 C        -3.252646         0.739783         0.589435
 C        -2.657889         2.069882         0.278043
 C        -1.168899         1.795421        -0.098094
 O        -2.876990        -0.175036        -0.433053
 C        -1.752742        -0.592203         0.439227
 H         1.110468         1.168985         0.520710
 H        -0.709565         0.036985         2.883034
 H        -1.557661         1.612099         2.856173
 H        -3.080744        -0.711246         2.422455
 H        -4.361822         0.703804         0.737317
 H        -3.246430         2.445040        -0.616933
 H        -2.810847         2.912319         0.973611
 H        -1.253504         1.432697        -1.115134
 H        -0.552198         2.656173         0.053440
 H        -1.405991        -1.609102         0.156793
