19
Iteration:  2689
 O         0.665635         0.349253         0.609424
 C        -0.761243         0.620924         0.763682
 C        -1.262456         0.600149         2.278332
 C        -2.598546        -0.028465         1.717458
 C        -3.373280         0.810038         0.492752
 C        -2.762039         2.089447         0.272415
 C        -1.206774         1.819155        -0.074737
 O        -2.748751        -0.291226        -0.461577
 C        -1.810299        -0.508409         0.503905
 H         1.186425         1.094982         0.676174
 H        -0.751267        -0.264355         2.785916
 H        -1.068689         1.503430         2.888558
 H        -3.129155        -0.503616         2.503976
 H        -4.431913         0.622261         0.480933
 H        -3.363319         2.799822        -0.292064
 H        -2.787378         2.717471         1.180048
 H        -1.297396         1.410955        -1.078320
 H        -0.701431         2.679952         0.054772
 H        -1.404592        -1.509766         0.421751
