19
Iteration:  2369
 O         0.716792         0.409340         0.686597
 C        -0.769819         0.615971         0.761825
 C        -1.234786         0.632540         2.317440
 C        -2.559989        -0.009432         1.752060
 C        -3.366612         0.725953         0.452972
 C        -2.715151         2.118325         0.386805
 C        -1.301017         1.817377        -0.159532
 O        -2.819978        -0.260422        -0.460979
 C        -1.799390        -0.570480         0.477217
 H         1.077981         0.571244        -0.281545
 H        -0.840412        -0.255696         2.803647
 H        -1.198160         1.485677         2.994602
 H        -3.156836        -0.549421         2.426419
 H        -4.406320         0.702834         0.150258
 H        -3.244401         2.680056        -0.453163
 H        -2.714381         2.499125         1.431392
 H        -1.192462         1.601669        -1.245801
 H        -0.654430         2.816795        -0.155748
 H        -1.432870        -1.578926         0.300364
