19
Iteration:  2167charge 0 multiplicity 1
 O         0.645643         0.252766         0.363469
 C        -0.743475         0.608730         0.826281
 C        -1.355545         0.685192         2.246695
 C        -2.601654        -0.000476         1.724047
 C        -3.272636         0.731900         0.591952
 C        -2.731773         2.023172         0.120885
 C        -1.199673         1.939102         0.215376
 O        -2.796406        -0.253427        -0.427475
 C        -1.764861        -0.539250         0.527923
 H         1.091636         1.080600         0.524506
 H        -0.794746         0.050078         3.014667
 H        -1.279957         1.663106         2.656114
 H        -3.211629        -0.609361         2.468758
 H        -4.406373         0.691104         0.651809
 H        -3.176694         2.112505        -0.918254
 H        -3.174690         2.910623         0.592050
 H        -0.836702         1.766484        -0.896001
 H        -0.844527         2.858695         0.702668
 H        -1.292684        -1.583640         0.621131
