19
Iteration:  1544
 O         0.577434         0.188278         0.675063
 C        -0.715891         0.603424         0.768949
 C        -1.276568         0.695401         2.215703
 C        -2.491777        -0.074423         1.710639
 C        -3.355966         0.721068         0.551704
 C        -2.791491         2.070498         0.278042
 C        -1.239176         1.905892        -0.014788
 O        -2.759542        -0.131772        -0.519079
 C        -1.784051        -0.558166         0.446107
 H         1.277527         0.846097         1.032295
 H        -0.591990         0.088404         2.870912
 H        -1.451270         1.840857         2.758038
 H        -3.090893        -0.707276         2.313813
 H        -4.443455         0.670255         0.694992
 H        -3.124748         2.613051        -0.654460
 H        -3.042370         2.755300         1.104935
 H        -1.185931         1.705684        -1.097987
 H        -0.605554         2.753058         0.270655
 H        -1.345275        -1.523667         0.168981
