19
Iteration:  3868
 O         0.574854         0.255564         0.502116
 C        -0.777649         0.617209         0.758264
 C        -1.341218         0.718537         2.245062
 C        -2.574350        -0.062571         1.701506
 C        -3.246790         0.742574         0.490968
 C        -2.680400         2.090525         0.231146
 C        -1.169612         1.972762         0.049258
 O        -2.806064        -0.262410        -0.443178
 C        -1.801126        -0.603334         0.563351
 H         1.193671         0.940424         0.969517
 H        -0.799580        -0.019219         2.917836
 H        -1.495242         1.653932         2.789089
 H        -3.176849        -0.655913         2.388392
 H        -4.315579         0.683350         0.449095
 H        -3.291940         2.265489        -0.707176
 H        -2.920313         2.634187         1.123817
 H        -0.794654         2.040289        -1.022865
 H        -0.674553         2.743373         0.711570
 H        -1.309461        -1.573224         0.391968
