19
Iteration:  2860charge 0 multiplicity 1
 O         0.594099         0.133845         0.651340
 C        -0.733680         0.671033         0.742772
 C        -1.226694         0.703153         2.216037
 C        -2.517173        -0.074206         1.701286
 C        -3.352727         0.678178         0.557620
 C        -2.827036         2.089140         0.218403
 C        -1.246329         2.001081         0.053148
 O        -2.770812        -0.196496        -0.433357
 C        -1.724761        -0.549941         0.443014
 H         1.203551         0.853671         0.582391
 H        -0.692031        -0.103138         2.614658
 H        -1.258620         1.714301         2.549316
 H        -3.288673        -0.529355         2.342361
 H        -4.455337         0.787622         0.546406
 H        -3.321174         2.353332        -0.740283
 H        -3.147756         2.777906         0.970143
 H        -0.886371         2.040310        -0.960272
 H        -0.721587         2.798933         0.533357
 H        -1.437618        -1.604326         0.326880
