19
Iteration:  1474charge 0 multiplicity 1
 O         0.643656         0.471394         0.518426
 C        -0.745355         0.548771         0.769721
 C        -1.291817         0.553684         2.273880
 C        -2.603347         0.039250         1.648441
 C        -3.378013         0.784620         0.540323
 C        -2.683235         2.110415         0.208302
 C        -1.190968         1.835448         0.119358
 O        -2.807752        -0.261222        -0.464698
 C        -1.757116        -0.597603         0.460824
 H         0.932401        -0.312530         1.169766
 H        -0.765207        -0.167242         2.945629
 H        -1.374834         1.614932         2.921266
 H        -3.336013        -0.392823         2.417439
 H        -4.470405         0.845651         0.534065
 H        -3.019662         2.477220        -0.735743
 H        -2.878631         2.878407         1.006060
 H        -1.020938         1.642281        -0.955722
 H        -0.564441         2.714631         0.523173
 H        -1.452531        -1.636136         0.490894
