19
Iteration:  2007charge 0 multiplicity 1
 O         0.606699         0.348379         0.548127
 C        -0.752698         0.556325         0.709535
 C        -1.333854         0.701042         2.295414
 C        -2.560288         0.012312         1.699224
 C        -3.298895         0.691532         0.483392
 C        -2.738456         2.046674         0.242250
 C        -1.167428         1.949230         0.058394
 O        -2.760222        -0.251998        -0.419275
 C        -1.791235        -0.581571         0.553433
 H         0.764361        -0.138648        -0.199427
 H        -0.889583         0.084778         3.086723
 H        -1.573347         1.796839         2.639278
 H        -2.994573        -0.666131         2.369169
 H        -4.380241         0.728940         0.451773
 H        -3.210486         2.494907        -0.654135
 H        -3.065521         2.740377         1.041506
 H        -0.881749         2.093175        -0.948451
 H        -0.580311         2.696908         0.669069
 H        -1.390021        -1.563546         0.421079
