19
Iteration:  2191charge 0 multiplicity 1
 O         0.568173         0.215886         0.638360
 C        -0.771867         0.681492         0.692452
 C        -1.191586         0.669871         2.242758
 C        -2.476683        -0.038885         1.721764
 C        -3.375561         0.663888         0.502419
 C        -2.772231         2.093235         0.126893
 C        -1.150162         2.019891         0.100309
 O        -2.907920        -0.316491        -0.423990
 C        -1.760067        -0.541184         0.509757
 H         1.176607         1.044938         0.340816
 H        -0.618079        -0.082974         2.802230
 H        -1.091172         1.585453         2.794808
 H        -2.966688        -0.626779         2.436151
 H        -4.458004         0.581926         0.638970
 H        -3.251350         2.574329        -0.855173
 H        -3.088789         2.906658         0.863475
 H        -0.796109         2.083043        -0.980616
 H        -0.666536         2.770307         0.790421
 H        -1.209574        -1.501137         0.419331
