19
Iteration:  3462charge 0 multiplicity 1
 O         0.559443         0.331390         0.471546
 C        -0.788924         0.563938         0.859840
 C        -1.303421         0.609337         2.312745
 C        -2.547131        -0.105836         1.726418
 C        -3.348984         0.753995         0.552444
 C        -2.709781         2.177915         0.145323
 C        -1.132445         1.907929         0.074770
 O        -2.754174        -0.268996        -0.442863
 C        -1.800731        -0.573303         0.502804
 H         0.998624         1.294256         0.523576
 H        -0.666197        -0.038366         2.918961
 H        -1.578330         1.518943         2.957943
 H        -3.209880        -0.696383         2.443537
 H        -4.399954         0.785623         0.333885
 H        -3.104861         2.488172        -0.877677
 H        -2.836163         2.904390         0.943297
 H        -1.108503         1.808535        -1.001118
 H        -0.480829         2.748705         0.319803
 H        -1.297556        -1.511458         0.323130
