19
Iteration:   478charge 0 multiplicity 1
 O         0.724689         0.456950         0.813984
 C        -0.727730         0.531118         0.719986
 C        -1.293204         0.688547         2.127823
 C        -2.609172         0.001182         1.713041
 C        -3.366230         0.745721         0.538601
 C        -2.673541         2.063310         0.324852
 C        -1.298779         1.663232        -0.077714
 O        -2.773074        -0.138681        -0.487201
 C        -1.830341        -0.629177         0.496164
 H         1.078101         0.936417         0.072676
 H        -0.784791         0.051743         2.933283
 H        -1.199304         1.696028         2.628341
 H        -3.085458        -0.569160         2.470978
 H        -4.488704         0.782967         0.328728
 H        -3.192494         2.514902        -0.559722
 H        -2.738507         2.884818         1.138128
 H        -1.315984         1.362249        -1.110984
 H        -0.695386         2.533577        -0.163530
 H        -1.587213        -1.734860         0.366861
