19
Iteration:  1746
 O         0.492791         0.219026         0.524641
 C        -0.829661         0.632054         0.776439
 C        -1.332968         0.674804         2.255027
 C        -2.543347        -0.083275         1.733186
 C        -3.285963         0.748139         0.555577
 C        -2.672963         2.096036         0.178214
 C        -1.123899         2.026327         0.191634
 O        -2.845631        -0.313545        -0.455656
 C        -1.650442        -0.563173         0.419492
 H         1.110927         0.915678         0.509620
 H        -0.739360         0.045477         2.855144
 H        -1.514031         1.578995         2.687065
 H        -3.139449        -0.763112         2.410336
 H        -4.381176         0.926421         0.468579
 H        -3.118554         2.233757        -0.792252
 H        -3.134375         2.959562         0.700250
 H        -0.674085         2.250781        -0.755531
 H        -0.709300         2.822508         0.793329
 H        -1.164473        -1.523621         0.140919
