19
Iteration:  4986charge 0 multiplicity 1
 O         0.628372         0.285499         0.617591
 C        -0.779519         0.622986         0.866866
 C        -1.217650         0.631179         2.246556
 C        -2.576064         0.061687         1.697461
 C        -3.392726         0.693978         0.399737
 C        -2.776508         2.141497         0.333464
 C        -1.193000         1.865971         0.134232
 O        -2.710794        -0.224323        -0.555100
 C        -1.805637        -0.592008         0.509031
 H         0.757962         0.214580        -0.379196
 H        -0.621671        -0.045978         2.848223
 H        -1.200720         1.633599         2.779254
 H        -3.335924        -0.530231         2.246675
 H        -4.485875         0.528240         0.281936
 H        -3.163913         2.711543        -0.540855
 H        -2.998933         2.701582         1.264740
 H        -1.018701         1.715563        -0.942772
 H        -0.683697         2.861101         0.308935
 H        -1.407847        -1.556346         0.326772
