19
Iteration:  1417
 O         0.575151         0.232728         0.634211
 C        -0.790822         0.647825         0.787648
 C        -1.330274         0.720796         2.258420
 C        -2.564798        -0.118924         1.668836
 C        -3.278122         0.700582         0.518180
 C        -2.733420         2.114391         0.198494
 C        -1.146096         1.977655         0.106729
 O        -2.823612        -0.265813        -0.448886
 C        -1.706790        -0.532984         0.457703
 H         0.678666         0.254582        -0.315888
 H        -0.572173         0.139667         2.879819
 H        -1.553046         1.813214         2.692839
 H        -3.208621        -0.776205         2.277241
 H        -4.386285         0.785695         0.594516
 H        -3.205101         2.599939        -0.645856
 H        -2.984110         2.732209         1.076789
 H        -0.812603         1.938309        -0.989083
 H        -0.527359         2.788724         0.522480
 H        -1.226475        -1.547796         0.431079
