19
Iteration:  4827
 O         0.627953         0.239448         0.702975
 C        -0.696520         0.633086         0.878262
 C        -1.252495         0.616817         2.214262
 C        -2.543553         0.014754         1.683176
 C        -3.365984         0.692980         0.571022
 C        -2.756247         2.138585         0.209488
 C        -1.272954         1.841680         0.098423
 O        -2.803210        -0.221638        -0.524080
 C        -1.776369        -0.466442         0.392266
 H         1.116782         0.563746        -0.166860
 H        -0.688838        -0.158961         2.742431
 H        -1.233898         1.476392         2.863592
 H        -3.258144        -0.666984         2.222448
 H        -4.466247         0.774125         0.578165
 H        -3.011551         2.415173        -0.818592
 H        -3.040435         2.905095         0.898818
 H        -0.990810         1.791827        -1.033324
 H        -0.699227         2.772554         0.401554
 H        -1.330653        -1.501121         0.331350
