19
Iteration:   919
 O         0.624387         0.445035         0.615607
 C        -0.723406         0.604297         0.816693
 C        -1.385095         0.659282         2.206260
 C        -2.620904        -0.136255         1.711985
 C        -3.319070         0.722859         0.574650
 C        -2.632352         2.179556         0.295366
 C        -1.253540         1.674708        -0.116942
 O        -2.784481        -0.168722        -0.477981
 C        -1.763525        -0.587088         0.551133
 H         1.314240         1.249265         0.717118
 H        -0.869889        -0.041711         2.850140
 H        -1.292957         1.610528         2.728869
 H        -3.136377        -0.803750         2.217852
 H        -4.445623         0.735949         0.637631
 H        -3.135037         2.729322        -0.553862
 H        -2.629565         2.893462         1.248308
 H        -1.316359         1.403055        -1.118206
 H        -0.442878         2.404872        -0.314573
 H        -1.486882        -1.692963         0.353799
