19
Iteration:  3684
 O         0.720293         0.318417         0.643584
 C        -0.722499         0.593589         0.800258
 C        -1.306264         0.659548         2.223946
 C        -2.541917         0.011279         1.689992
 C        -3.373566         0.796219         0.475668
 C        -2.718668         2.134622         0.308203
 C        -1.258717         1.885816        -0.032234
 O        -2.818297        -0.269339        -0.501926
 C        -1.827162        -0.651495         0.539193
 H         1.198766         1.020648         0.240718
 H        -0.691542        -0.093808         2.850657
 H        -1.170531         1.620575         2.746930
 H        -3.017429        -0.646391         2.339537
 H        -4.440071         0.676294         0.479155
 H        -3.267698         2.692496        -0.524042
 H        -3.181809         2.591379         1.199996
 H        -1.160471         1.528115        -1.055579
 H        -0.720670         2.658164         0.432274
 H        -1.368907        -1.672888         0.400000
