19
Iteration:   484charge 0 multiplicity 1
 O         0.725640         0.482568         0.829256
 C        -0.734616         0.542065         0.730495
 C        -1.296802         0.673252         2.124113
 C        -2.580311         0.018497         1.685184
 C        -3.354670         0.761970         0.514282
 C        -2.678487         2.074387         0.356738
 C        -1.272698         1.613010        -0.122817
 O        -2.828549        -0.179009        -0.469888
 C        -1.821789        -0.601108         0.488561
 H         1.023064         1.030556         0.124590
 H        -1.003969         0.016680         2.909638
 H        -1.212878         1.620250         2.629511
 H        -3.101336        -0.640835         2.473724
 H        -4.425287         0.840710         0.465324
 H        -3.167846         2.645694        -0.460745
 H        -2.653456         2.739033         1.160147
 H        -1.227331         1.278790        -1.250827
 H        -0.613580         2.539668        -0.028086
 H        -1.472157        -1.594529         0.353043
