19
Iteration:   194charge 0 multiplicity 1
 O         0.625328         0.425295         0.894852
 C        -0.728493         0.671094         0.748045
 C        -1.346444         0.693347         2.252844
 C        -2.506131        -0.170404         1.622594
 C        -3.282732         0.766460         0.645080
 C        -2.664613         2.164700         0.295051
 C        -1.256845         1.780267        -0.250205
 O        -2.876678        -0.193099        -0.420545
 C        -1.741819        -0.599120         0.354379
 H         0.757703        -0.368034         0.243227
 H        -0.663755        -0.008637         2.804948
 H        -1.569690         1.683780         2.684299
 H        -3.070011        -0.942492         2.155120
 H        -4.330108         0.830542         0.811142
 H        -3.342410         2.542647        -0.464865
 H        -2.650825         2.886844         1.176153
 H        -1.397663         1.322418        -1.239608
 H        -0.493440         2.618507        -0.532193
 H        -1.268049        -1.629226         0.209731
