19
Iteration:  1613charge 0 multiplicity 1
 O         0.639396         0.263152         0.564050
 C        -0.757193         0.600166         0.754120
 C        -1.268485         0.605148         2.200306
 C        -2.586460         0.020574         1.669416
 C        -3.344030         0.772853         0.522948
 C        -2.793805         2.095407         0.187253
 C        -1.178179         1.898773         0.123241
 O        -2.729998        -0.209742        -0.438587
 C        -1.796614        -0.603205         0.546296
 H         0.999207         1.066242         0.338178
 H        -0.924247        -0.281002         2.824077
 H        -1.246820         1.681355         2.920001
 H        -3.206115        -0.585594         2.365179
 H        -4.458654         0.651860         0.524585
 H        -3.236473         2.422524        -0.771032
 H        -3.164347         2.828228         0.913319
 H        -0.872528         1.987754        -0.947885
 H        -0.734519         2.679535         0.683059
 H        -1.379693        -1.670074         0.534468
