19
Iteration:  1157charge 0 multiplicity 1
 O         0.541097         0.299007         0.411512
 C        -0.769867         0.536202         0.831941
 C        -1.277620         0.693841         2.283589
 C        -2.551458         0.064263         1.699710
 C        -3.291968         0.705630         0.494821
 C        -2.727775         2.090396         0.120940
 C        -1.250144         1.904084         0.142310
 O        -2.704229        -0.266786        -0.431100
 C        -1.790305        -0.606133         0.602183
 H         0.997883         1.085111         0.532518
 H        -1.098423        -0.154293         2.901361
 H        -1.183779         1.662149         2.707570
 H        -3.315578        -0.497846         2.442253
 H        -4.371898         0.631108         0.588590
 H        -2.967208         2.424542        -0.951647
 H        -3.029274         2.851562         0.910553
 H        -0.830088         2.064172        -0.870933
 H        -0.763192         2.646143         0.819874
 H        -1.293359        -1.578413         0.557703
