19
Iteration:   283charge 0 multiplicity 1
 O         0.509434         0.296233         0.450824
 C        -0.754348         0.678564         0.866543
 C        -1.323712         0.589883         2.369670
 C        -2.540652        -0.025437         1.751736
 C        -3.265034         0.778070         0.518391
 C        -2.724716         2.060564         0.010821
 C        -1.181075         1.947472         0.078905
 O        -2.784937        -0.307164        -0.439157
 C        -1.779743        -0.538865         0.579278
 H         1.314421         0.735322         0.816469
 H        -0.666108        -0.204147         2.857701
 H        -1.379755         1.604160         2.836237
 H        -3.245122        -0.606181         2.294662
 H        -4.323953         0.812948         0.537774
 H        -3.074123         2.192008        -0.967325
 H        -3.194313         2.823187         0.715173
 H        -0.832039         1.890105        -0.955421
 H        -0.556885         2.887212         0.549821
 H        -1.184060        -1.530480         0.458419
