19
Iteration:  4044charge 0 multiplicity 1
 O         0.628785         0.265746         0.604862
 C        -0.803555         0.599804         0.786720
 C        -1.332732         0.755766         2.249150
 C        -2.588076        -0.044105         1.650867
 C        -3.368449         0.683710         0.570807
 C        -2.675199         2.057523         0.277125
 C        -1.164205         1.898524         0.050532
 O        -2.821238        -0.247426        -0.452931
 C        -1.728680        -0.545972         0.457043
 H         0.989538         0.765407        -0.209401
 H        -0.734771         0.135203         2.981012
 H        -1.539854         1.661585         2.736948
 H        -3.241982        -0.548954         2.340428
 H        -4.438474         0.755283         0.385506
 H        -3.168972         2.762812        -0.441439
 H        -2.749920         2.809224         1.067570
 H        -0.819897         1.639008        -1.016893
 H        -0.434682         2.673396         0.487567
 H        -1.229518        -1.500247         0.171797
