19
Iteration:   154charge 0 multiplicity 1
 O         0.632009         0.410400         0.690453
 C        -0.730265         0.597500         0.778755
 C        -1.271186         0.710586         2.172903
 C        -2.598577         0.014191         1.643189
 C        -3.354598         0.733765         0.547465
 C        -2.700658         2.042952         0.286019
 C        -1.149173         1.841965         0.012415
 O        -2.821717        -0.260901        -0.477497
 C        -1.817589        -0.621043         0.535525
 H         0.940242         0.565225        -0.152650
 H        -0.878225        -0.185873         2.784949
 H        -1.145383         1.696012         2.696954
 H        -3.168707        -0.626193         2.298822
 H        -4.458295         0.763918         0.495503
 H        -3.022094         2.432187        -0.631347
 H        -2.999705         2.839685         1.103112
 H        -1.009377         1.694650        -1.028043
 H        -0.577434         2.643176         0.362695
 H        -1.556069        -1.735476         0.390529
