19
Iteration:  1671charge 0 multiplicity 1
 O         0.623519         0.301808         0.661844
 C        -0.797508         0.640152         0.721247
 C        -1.351029         0.688998         2.165786
 C        -2.588989        -0.158920         1.716371
 C        -3.310743         0.701632         0.597465
 C        -2.595551         2.147249         0.400997
 C        -1.205849         1.905658        -0.129663
 O        -2.830864        -0.232140        -0.522066
 C        -1.766621        -0.603620         0.471680
 H         1.132016         1.035319         1.244677
 H        -0.917870         0.079350         2.964560
 H        -1.516123         1.835413         2.693292
 H        -3.259940        -0.686536         2.432304
 H        -4.401984         0.781430         0.550459
 H        -3.075941         2.628256        -0.426685
 H        -2.584481         2.787981         1.326670
 H        -1.340098         1.569636        -1.131760
 H        -0.529273         2.767789        -0.039769
 H        -1.169970        -1.458832         0.254337
