19
Iteration:  2411charge 0 multiplicity 1
 O         0.648784         0.341469         0.719894
 C        -0.739847         0.612955         0.733654
 C        -1.317639         0.737815         2.245018
 C        -2.486601        -0.115913         1.742950
 C        -3.307194         0.643021         0.622944
 C        -2.734874         2.065796         0.224465
 C        -1.194783         1.897294        -0.018441
 O        -2.920027        -0.183047        -0.439606
 C        -1.769012        -0.563358         0.386820
 H         0.914345         0.136304        -0.119648
 H        -0.610811         0.182947         2.814362
 H        -1.562982         1.780660         2.505232
 H        -2.967357        -0.806313         2.341558
 H        -4.386183         0.735772         0.884483
 H        -3.208777         2.291008        -0.762043
 H        -3.028892         2.892387         0.847734
 H        -0.922234         1.990704        -1.141298
 H        -0.399091         2.694321         0.362059
 H        -1.267932        -1.448010        -0.017600
