19
Iteration:  3045charge 0 multiplicity 1
 O         0.594974         0.254426         0.512149
 C        -0.745786         0.588300         0.822487
 C        -1.312431         0.700343         2.296171
 C        -2.557401        -0.017233         1.726309
 C        -3.356366         0.729554         0.584334
 C        -2.733304         2.093063         0.205035
 C        -1.174264         1.918692         0.032469
 O        -2.745651        -0.236070        -0.499490
 C        -1.776752        -0.588523         0.495315
 H         1.124976         0.874297         1.002265
 H        -0.876427        -0.019973         2.912390
 H        -1.353949         1.719884         2.570526
 H        -3.215054        -0.753662         2.348016
 H        -4.433704         0.752496         0.448136
 H        -3.219941         2.515093        -0.705389
 H        -2.993937         2.823824         0.977908
 H        -1.057206         1.734256        -1.037175
 H        -0.781754         2.868182         0.410482
 H        -1.279359        -1.588016         0.358180
