19
Iteration:  2197
 O         0.589410         0.222717         0.670494
 C        -0.785475         0.663681         0.720566
 C        -1.207527         0.663135         2.190786
 C        -2.497026        -0.064207         1.739842
 C        -3.347111         0.654139         0.462926
 C        -2.774036         2.136831         0.134278
 C        -1.147913         2.017439         0.080225
 O        -2.920629        -0.291554        -0.372477
 C        -1.744612        -0.532506         0.472621
 H         1.060474         0.976110         0.333119
 H        -0.502427        -0.132570         2.568588
 H        -1.142137         1.661063         2.700315
 H        -2.996590        -0.806185         2.518925
 H        -4.457088         0.559735         0.635941
 H        -3.228755         2.534254        -0.688628
 H        -3.088094         2.792321         0.912935
 H        -0.787033         1.951303        -0.965367
 H        -0.725909         2.900128         0.535530
 H        -1.171468        -1.487935         0.504637
