19
Iteration:   807charge 0 multiplicity 1
 O         0.693792         0.350367         0.647285
 C        -0.709655         0.602976         0.798131
 C        -1.272518         0.669833         2.253740
 C        -2.621000         0.070886         1.688377
 C        -3.342587         0.753058         0.498629
 C        -2.751993         2.081641         0.251026
 C        -1.275709         1.781626        -0.091589
 O        -2.772011        -0.249962        -0.465361
 C        -1.779865        -0.590958         0.550282
 H         1.089526         1.162237         0.544932
 H        -0.754052        -0.231062         2.667244
 H        -1.220825         1.449764         2.990854
 H        -3.261436        -0.548094         2.295860
 H        -4.501134         0.637037         0.503348
 H        -3.397244         2.858574        -0.391904
 H        -2.792786         2.600425         1.251887
 H        -1.206972         1.404045        -1.185936
 H        -0.485971         2.632867        -0.010697
 H        -1.549499        -1.684824         0.477306
