19
Iteration:   286
 O         0.533547         0.285793         0.465948
 C        -0.768888         0.681984         0.851925
 C        -1.320094         0.604149         2.367053
 C        -2.542923        -0.031905         1.759733
 C        -3.278095         0.790570         0.541360
 C        -2.744794         2.080311         0.031366
 C        -1.176267         1.934777         0.075029
 O        -2.782608        -0.319435        -0.445061
 C        -1.761296        -0.523990         0.551910
 H         1.383120         0.702208         0.919879
 H        -0.680205        -0.148093         2.787470
 H        -1.390133         1.578315         2.830001
 H        -3.273444        -0.657914         2.314230
 H        -4.347010         0.815533         0.481705
 H        -3.091684         2.100369        -1.000411
 H        -3.197076         2.911499         0.694448
 H        -0.863176         1.878096        -0.956764
 H        -0.596080         2.714382         0.478353
 H        -1.230986        -1.473640         0.412118
