19
Iteration:  3061
 O         0.541777         0.195678         0.601118
 C        -0.799030         0.747205         0.765037
 C        -1.364142         0.713031         2.178124
 C        -2.571207        -0.126872         1.678107
 C        -3.251368         0.675263         0.517500
 C        -2.670810         2.056569         0.304148
 C        -1.136161         1.904031        -0.012493
 O        -2.836003        -0.232561        -0.427779
 C        -1.723854        -0.490198         0.469401
 H         1.239323         0.932792         0.822670
 H        -0.647250         0.399548         3.032659
 H        -1.712775         1.679653         2.715375
 H        -3.137596        -0.724596         2.300159
 H        -4.371401         0.693630         0.708891
 H        -3.174236         2.463698        -0.590508
 H        -2.836867         2.697578         1.194402
 H        -1.045304         1.696725        -1.121108
 H        -0.527360         2.777671         0.358842
 H        -1.259365        -1.466894         0.438981
