19
Iteration:  4962
 O         0.729877         0.364866         0.638930
 C        -0.757269         0.575837         0.774086
 C        -1.400303         0.628256         2.218967
 C        -2.612457         0.016205         1.607992
 C        -3.344014         0.705306         0.537548
 C        -2.669950         2.113062         0.332331
 C        -1.136389         1.872360         0.031129
 O        -2.826844        -0.249486        -0.462698
 C        -1.810137        -0.577167         0.501992
 H         0.972767         0.511479        -0.358070
 H        -0.966549        -0.066649         2.951874
 H        -1.508739         1.580596         2.730724
 H        -3.089932        -0.746982         2.195029
 H        -4.409350         0.687901         0.378203
 H        -3.211852         2.540311        -0.482484
 H        -2.886569         2.702867         1.245215
 H        -0.895594         2.046113        -1.049547
 H        -0.565186         2.759234         0.549275
 H        -1.493593        -1.552123         0.412290
