19
Iteration:  1349charge 0 multiplicity 1
 O         0.613640         0.407012         0.599278
 C        -0.788751         0.691563         0.787178
 C        -1.361269         0.559077         2.288849
 C        -2.605476        -0.058778         1.712966
 C        -3.240642         0.744004         0.596730
 C        -2.661528         2.080005         0.252518
 C        -1.157822         1.835050        -0.097012
 O        -2.826281        -0.171993        -0.478410
 C        -1.796879        -0.626525         0.483651
 H         1.221586         1.057828         1.173434
 H        -0.737811        -0.275649         2.765582
 H        -1.326923         1.532101         2.886792
 H        -3.288812        -0.731751         2.138666
 H        -4.364170         0.727066         0.707205
 H        -3.367115         2.518458        -0.522753
 H        -2.812834         2.769205         1.042150
 H        -1.101637         1.344619        -1.125496
 H        -0.455896         2.654283        -0.162214
 H        -1.392729        -1.728116         0.299696
