19
Iteration:  3320charge 0 multiplicity 1
 O         0.574839         0.234462         0.475010
 C        -0.756901         0.631298         0.817970
 C        -1.356270         0.713217         2.286775
 C        -2.582455        -0.069411         1.706558
 C        -3.303257         0.741393         0.510337
 C        -2.662437         2.098293         0.253842
 C        -1.199848         1.910561         0.077541
 O        -2.761752        -0.252942        -0.469124
 C        -1.774894        -0.552715         0.467170
 H         1.228793         1.052560         0.607932
 H        -0.789482         0.165106         2.987405
 H        -1.563916         1.549225         2.931013
 H        -3.317270        -0.740944         2.278064
 H        -4.381747         0.690518         0.521582
 H        -3.160306         2.482846        -0.661863
 H        -3.004838         2.561568         1.154433
 H        -0.852201         1.974328        -0.974125
 H        -0.604900         2.711775         0.598720
 H        -1.306531        -1.513101         0.449289
