19
Iteration:  2825
 O         0.590461         0.312783         0.531339
 C        -0.729728         0.638980         0.858294
 C        -1.368613         0.705071         2.250450
 C        -2.596559        -0.117943         1.643677
 C        -3.323548         0.726912         0.523502
 C        -2.670002         2.067557         0.316435
 C        -1.204873         1.859867        -0.046005
 O        -2.814036        -0.196318        -0.433988
 C        -1.715201        -0.574410         0.459482
 H         1.198802         1.019284         0.878521
 H        -0.710721         0.297201         2.979627
 H        -1.374156         1.624298         2.789515
 H        -3.223610        -0.716303         2.423197
 H        -4.407305         0.795716         0.519761
 H        -3.286569         2.610241        -0.343867
 H        -2.671797         2.638618         1.263737
 H        -1.295876         1.536033        -1.061835
 H        -0.474424         2.545259         0.044064
 H        -1.252941        -1.573266         0.310563
