19
Iteration:  1317
 O         0.619523         0.154828         0.538199
 C        -0.732265         0.649528         0.751333
 C        -1.289515         0.757315         2.250018
 C        -2.539480         0.005836         1.707904
 C        -3.334015         0.676102         0.477669
 C        -2.828176         2.102555         0.240306
 C        -1.170635         1.992034         0.192826
 O        -2.806572        -0.273428        -0.495146
 C        -1.777517        -0.570819         0.460107
 H         1.215555         0.677036         0.983696
 H        -0.690103         0.170589         3.059519
 H        -1.282643         1.914113         2.500231
 H        -3.086848        -0.738200         2.224179
 H        -4.452963         0.649467         0.562757
 H        -3.237915         2.432094        -0.677019
 H        -3.014415         2.629741         1.105059
 H        -0.852598         1.893985        -0.898043
 H        -0.631302         2.800678         0.683555
 H        -1.293484        -1.573638         0.235557
