19
Iteration:   668charge 0 multiplicity 1
 O         0.621379         0.309249         0.703037
 C        -0.760888         0.677188         0.792028
 C        -1.307890         0.689322         2.243277
 C        -2.558497        -0.051439         1.677813
 C        -3.286411         0.738930         0.550172
 C        -2.723543         2.046735         0.145053
 C        -1.183018         1.863922        -0.073893
 O        -2.841930        -0.281006        -0.427174
 C        -1.790296        -0.546141         0.545624
 H         1.067413         0.721351        -0.139002
 H        -0.746832        -0.000132         2.951609
 H        -1.466785         1.644827         2.845033
 H        -3.253255        -0.673274         2.227887
 H        -4.353648         0.836918         0.729060
 H        -3.301935         2.562355        -0.606118
 H        -2.753374         2.760264         1.062874
 H        -0.967464         1.686587        -1.117890
 H        -0.602141         2.793171         0.117464
 H        -1.144517        -1.494963         0.397391
