19
Iteration:  2896charge 0 multiplicity 1
 O         0.599977         0.381703         0.453160
 C        -0.788131         0.609610         0.822373
 C        -1.316683         0.693645         2.317477
 C        -2.634490        -0.066285         1.660840
 C        -3.325273         0.739935         0.552476
 C        -2.668439         2.043580         0.250887
 C        -1.079089         1.851724         0.063876
 O        -2.839009        -0.266780        -0.428420
 C        -1.766417        -0.574167         0.478443
 H         1.169084         1.142160         0.503686
 H        -0.844828         0.122729         3.130275
 H        -1.238877         1.530229         2.973326
 H        -3.303232        -0.649655         2.183084
 H        -4.436085         0.710362         0.474630
 H        -3.009617         2.409114        -0.769068
 H        -3.033502         2.779556         0.968671
 H        -0.685021         1.621863        -0.962730
 H        -0.759142         2.825542         0.564762
 H        -1.469518        -1.595095         0.214580
