19
Iteration:   778charge 0 multiplicity 1
 O         0.705546         0.436885         0.825928
 C        -0.747293         0.540481         0.746456
 C        -1.351811         0.734941         2.120554
 C        -2.588134        -0.123250         1.742286
 C        -3.287981         0.731782         0.634518
 C        -2.616355         2.066483         0.266727
 C        -1.196901         1.794661        -0.097182
 O        -2.954766        -0.237706        -0.463987
 C        -1.793804        -0.569810         0.396099
 H         0.980865         1.079498         0.107584
 H        -0.612758         0.388794         2.878512
 H        -1.572780         1.806003         2.461279
 H        -3.095503        -0.806778         2.385229
 H        -4.361381         0.870026         0.661590
 H        -3.173344         2.456073        -0.450242
 H        -2.614781         2.810978         1.071521
 H        -1.153600         1.512617        -1.122252
 H        -0.378752         2.512989        -0.120199
 H        -1.422232        -1.608080         0.070379
