19
Iteration:  3154
 O         0.549454         0.277775         0.506820
 C        -0.770714         0.639011         0.820492
 C        -1.346199         0.639845         2.267442
 C        -2.576390        -0.030287         1.673388
 C        -3.364043         0.681223         0.543146
 C        -2.666712         2.182206         0.230417
 C        -1.146355         1.933009         0.096540
 O        -2.789834        -0.306400        -0.438402
 C        -1.750177        -0.572092         0.476932
 H         1.104925         0.978059         0.347450
 H        -0.828991        -0.033819         2.959014
 H        -1.406956         1.593556         2.823314
 H        -3.310801        -0.637323         2.364674
 H        -4.373938         0.549553         0.233520
 H        -2.866644         2.556934        -0.791753
 H        -3.000519         2.895368         0.975753
 H        -0.694428         1.910925        -0.930155
 H        -0.555805         2.802769         0.682202
 H        -1.154908        -1.524449         0.376892
