19
Iteration:  3330
 O         0.587617         0.311129         0.530294
 C        -0.755365         0.583968         0.753291
 C        -1.338186         0.657774         2.261160
 C        -2.572756        -0.039563         1.665896
 C        -3.363871         0.754080         0.465401
 C        -2.681785         2.047598         0.276535
 C        -1.186904         1.876851         0.094620
 O        -2.810785        -0.216588        -0.489821
 C        -1.724372        -0.590971         0.580523
 H         1.258618         1.021742         0.747478
 H        -0.747808        -0.039043         2.787660
 H        -1.346749         1.705526         2.586348
 H        -3.183328        -0.682405         2.399202
 H        -4.417705         0.940046         0.456446
 H        -3.138445         2.643953        -0.562876
 H        -2.754030         2.749389         1.093618
 H        -1.066642         1.859939        -0.963004
 H        -0.673574         2.687926         0.595948
 H        -1.260050        -1.567788         0.473916
