19
Iteration:   979
 O         0.576960         0.186122         0.611080
 C        -0.712007         0.665931         0.750259
 C        -1.258743         0.657874         2.253108
 C        -2.525306        -0.010299         1.719077
 C        -3.294995         0.712980         0.536479
 C        -2.814671         2.087703         0.087840
 C        -1.208934         2.029282         0.119033
 O        -2.803527        -0.317937        -0.397597
 C        -1.777822        -0.512630         0.460640
 H         1.210902         0.830113         0.259602
 H        -0.732748        -0.175889         2.828870
 H        -1.161227         1.679017         2.793370
 H        -3.226244        -0.783403         2.329903
 H        -4.377938         0.783068         0.707341
 H        -3.168770         2.278122        -0.913083
 H        -3.221948         2.778853         0.710255
 H        -0.880167         2.138829        -0.988085
 H        -0.799594         2.757454         0.868197
 H        -1.284575        -1.438471         0.309654
