19
Iteration:  4767charge 0 multiplicity 1
 O         0.643151         0.431041         0.723869
 C        -0.679624         0.566012         0.839723
 C        -1.309338         0.618444         2.247821
 C        -2.629126        -0.008476         1.667460
 C        -3.331922         0.692789         0.478401
 C        -2.612884         2.064709         0.350478
 C        -1.227852         1.790995        -0.024781
 O        -2.863582        -0.164880        -0.530544
 C        -1.753715        -0.504207         0.418543
 H         0.702767         0.096225        -0.135591
 H        -0.846520        -0.098162         2.961307
 H        -1.399451         1.625074         2.696021
 H        -3.191613        -0.762203         2.214233
 H        -4.422254         0.782992         0.537872
 H        -3.152697         2.674816        -0.400878
 H        -2.865672         2.634716         1.296342
 H        -1.138901         1.458168        -0.979150
 H        -0.518480         2.583153         0.098654
 H        -1.479030        -1.571839         0.326958
