19
Iteration:  4722
 O         0.586735         0.215841         0.649865
 C        -0.793735         0.627250         0.781968
 C        -1.323089         0.700011         2.261919
 C        -2.503135        -0.053566         1.631042
 C        -3.279952         0.719613         0.523908
 C        -2.755078         2.079058         0.239128
 C        -1.199640         1.957125         0.121450
 O        -2.795443        -0.210115        -0.473836
 C        -1.771450        -0.581452         0.442006
 H         1.015398         0.376893        -0.166121
 H        -0.798491         0.003544         2.974849
 H        -1.292609         1.726299         2.646586
 H        -3.218156        -0.651552         2.209276
 H        -4.384173         0.718573         0.493798
 H        -3.139566         2.539269        -0.692339
 H        -2.936226         2.869334         1.030441
 H        -0.858985         1.861023        -0.829824
 H        -0.750847         2.855583         0.563914
 H        -1.161723        -1.456230         0.376429
