19
Iteration:  2632charge 0 multiplicity 1
 O         0.664665         0.250279         0.650852
 C        -0.703645         0.619659         0.710858
 C        -1.357119         0.759806         2.205661
 C        -2.501715        -0.066660         1.668124
 C        -3.363401         0.670704         0.564619
 C        -2.732485         2.066411         0.270415
 C        -1.172756         1.878818         0.048911
 O        -2.915401        -0.208961        -0.452127
 C        -1.729188        -0.526460         0.489410
 H         1.205425         0.926133         0.151040
 H        -0.682315         0.226291         2.946319
 H        -1.459999         1.790708         2.642240
 H        -2.991782        -0.705354         2.299996
 H        -4.468422         0.641567         0.559265
 H        -3.194494         2.241913        -0.721187
 H        -2.985050         2.693238         1.131525
 H        -1.035047         1.845650        -1.046559
 H        -0.646373         2.728646         0.406492
 H        -1.383921        -1.565725         0.395057
