19
Iteration:  1860
 O         0.713484         0.243827         0.735823
 C        -0.747325         0.597747         0.739074
 C        -1.191624         0.691654         2.258670
 C        -2.505676         0.024920         1.688884
 C        -3.341997         0.678427         0.551960
 C        -2.798516         2.036513         0.245407
 C        -1.259913         2.002337         0.119782
 O        -2.856249        -0.209653        -0.547904
 C        -1.834367        -0.561948         0.389648
 H         0.958828        -0.127155        -0.224313
 H        -0.651414        -0.002521         3.007455
 H        -1.326530         1.754377         2.778782
 H        -3.170543        -0.639079         2.258137
 H        -4.425543         0.511289         0.619759
 H        -3.288719         2.548099        -0.691848
 H        -3.122567         2.856982         0.879631
 H        -0.773901         2.032393        -0.878058
 H        -0.717698         2.769990         0.602687
 H        -1.418439        -1.570722         0.161306
