19
Iteration:  2211charge 0 multiplicity 1
 O         0.630932         0.279307         0.694087
 C        -0.727664         0.689003         0.737369
 C        -1.285489         0.642298         2.177049
 C        -2.546476        -0.064094         1.709470
 C        -3.313959         0.764925         0.614789
 C        -2.717367         2.076749         0.240891
 C        -1.230450         1.941341        -0.033416
 O        -2.848601        -0.325416        -0.416612
 C        -1.778360        -0.541247         0.450853
 H         1.180617         0.913895         0.169783
 H        -0.635588         0.021887         2.842806
 H        -1.384240         1.568305         2.711422
 H        -3.217408        -0.751853         2.277404
 H        -4.431243         0.872845         0.565653
 H        -3.220988         2.497991        -0.648382
 H        -2.928911         2.778527         1.052202
 H        -1.097337         1.752096        -1.174840
 H        -0.649862         2.813210         0.282990
 H        -1.311741        -1.527452         0.161911
