19
Iteration:  4455
 O         0.613996         0.402810         0.624147
 C        -0.740332         0.642841         0.786232
 C        -1.314657         0.612816         2.285260
 C        -2.537482        -0.151601         1.715567
 C        -3.305322         0.763731         0.590318
 C        -2.655210         2.144913         0.130082
 C        -1.188896         1.853541         0.084092
 O        -2.829968        -0.200293        -0.472287
 C        -1.783929        -0.609486         0.466161
 H         0.854784         0.277852        -0.279448
 H        -0.876423        -0.130641         2.903137
 H        -1.596367         1.548106         2.716374
 H        -3.347532        -0.652439         2.187227
 H        -4.371253         0.969801         0.659685
 H        -3.283636         2.330572        -0.755375
 H        -2.982243         2.895830         0.854741
 H        -1.008210         1.683305        -0.941176
 H        -0.596201         2.687451         0.438295
 H        -1.397592        -1.611469         0.536433
