19
Iteration:    14charge 0 multiplicity 1
 O         0.647406         0.499909         0.636299
 C        -0.772236         0.575721         0.789261
 C        -1.392758         0.646274         2.246184
 C        -2.615405        -0.093490         1.684961
 C        -3.249942         0.837052         0.609885
 C        -2.624866         2.156628         0.328779
 C        -1.278064         1.735336        -0.125104
 O        -2.790971        -0.236451        -0.446722
 C        -1.708547        -0.646652         0.458540
 H         0.905712        -0.425847         0.916483
 H        -0.787956         0.323890         3.025911
 H        -1.579525         1.679248         2.453789
 H        -3.388492        -0.609109         2.249865
 H        -4.354273         0.900987         0.599297
 H        -3.233097         2.534464        -0.673885
 H        -2.694456         2.891820         1.078913
 H        -1.430331         1.230457        -1.210251
 H        -0.537986         2.581335        -0.157347
 H        -1.271477        -1.529442         0.215416
