19
Iteration:  1299
 O         0.564693         0.091365         0.539205
 C        -0.740840         0.623156         0.773935
 C        -1.304777         0.749262         2.195338
 C        -2.517916         0.032003         1.709648
 C        -3.332265         0.709605         0.538330
 C        -2.742416         2.042496         0.259074
 C        -1.269556         2.028191         0.148958
 O        -2.732271        -0.243485        -0.525656
 C        -1.696359        -0.568338         0.482710
 H         1.193236         0.721145         0.624173
 H        -0.861370        -0.017078         2.760785
 H        -1.426290         1.805118         2.512342
 H        -3.216249        -0.424485         2.530411
 H        -4.384007         0.551962         0.500116
 H        -3.183178         2.375380        -0.738961
 H        -3.292855         2.766957         1.082929
 H        -0.963406         2.374371        -0.845178
 H        -0.899707         2.754049         0.904598
 H        -1.406005        -1.565027         0.584985
