19
Iteration:  1467charge 0 multiplicity 1
 O         0.667462         0.437933         0.512980
 C        -0.708655         0.556399         0.822669
 C        -1.256915         0.559680         2.297884
 C        -2.597057         0.043626         1.680709
 C        -3.384265         0.772250         0.483259
 C        -2.736103         2.094145         0.186852
 C        -1.213831         1.840624         0.115677
 O        -2.795647        -0.216352        -0.453226
 C        -1.821122        -0.597386         0.486969
 H         0.966139        -0.463256         0.843044
 H        -0.885792        -0.215762         2.970219
 H        -1.255784         1.600654         2.793237
 H        -3.089351        -0.599865         2.379101
 H        -4.474893         0.729856         0.405524
 H        -3.023676         2.622883        -0.774696
 H        -3.020495         2.912660         0.857649
 H        -0.782650         1.836695        -0.881699
 H        -0.740981         2.727492         0.504723
 H        -1.401361        -1.605547         0.490504
