19
Iteration:   282charge 0 multiplicity 1
 O         0.504991         0.298968         0.446915
 C        -0.751159         0.677339         0.869721
 C        -1.322147         0.587032         2.368868
 C        -2.541439        -0.022143         1.747607
 C        -3.259553         0.771522         0.511086
 C        -2.717188         2.055978         0.010578
 C        -1.181386         1.953828         0.081905
 O        -2.785357        -0.302652        -0.436105
 C        -1.783268        -0.545590         0.585437
 H         1.260472         0.741914         0.780381
 H        -0.674698        -0.205111         2.883809
 H        -1.374251         1.600070         2.846715
 H        -3.247244        -0.600720         2.299699
 H        -4.351282         0.806195         0.559423
 H        -3.081637         2.230023        -0.991206
 H        -3.179147         2.788672         0.702409
 H        -0.814590         1.886361        -0.959276
 H        -0.572070         2.915109         0.558128
 H        -1.186879        -1.527019         0.478694
