19
Iteration:  4655
 O         0.605681         0.389733         0.777519
 C        -0.812107         0.585664         0.783959
 C        -1.175360         0.586103         2.240100
 C        -2.610966        -0.085149         1.694492
 C        -3.378526         0.738426         0.535206
 C        -2.692786         2.095358         0.227774
 C        -1.208210         1.822775        -0.050884
 O        -2.747893        -0.137361        -0.522969
 C        -1.823318        -0.530888         0.489266
 H         1.063744         0.440260        -0.168380
 H        -0.570380        -0.262359         2.747910
 H        -1.039594         1.501681         2.872866
 H        -3.339272        -0.601398         2.396324
 H        -4.498248         0.735734         0.672204
 H        -3.157431         2.544315        -0.706965
 H        -3.002420         2.704511         1.164865
 H        -1.270350         1.611785        -1.103533
 H        -0.412033         2.583102         0.135808
 H        -1.458897        -1.520759         0.320776
