19
Iteration:  3430charge 0 multiplicity 1
 O         0.649451         0.189187         0.536206
 C        -0.747748         0.565183         0.775240
 C        -1.252686         0.740558         2.182417
 C        -2.617908         0.040348         1.709903
 C        -3.402613         0.734809         0.489227
 C        -2.779022         2.078709         0.321364
 C        -1.242928         1.875467         0.130654
 O        -2.718240        -0.266758        -0.486842
 C        -1.736376        -0.535211         0.470542
 H         1.239917         0.892774         0.683936
 H        -0.809743        -0.069387         2.761774
 H        -1.417941         1.619961         2.838754
 H        -3.177745        -0.517799         2.504486
 H        -4.489334         0.659163         0.425779
 H        -3.195930         2.643973        -0.574423
 H        -3.041029         2.848614         1.030760
 H        -1.045052         2.114981        -0.931242
 H        -0.808676         2.813077         0.444342
 H        -1.175264        -1.457945         0.504887
