19
Iteration:  1342
 O         0.587478         0.367996         0.570778
 C        -0.740303         0.697919         0.768940
 C        -1.354197         0.573664         2.260796
 C        -2.588880        -0.065021         1.666976
 C        -3.288311         0.725609         0.560669
 C        -2.683893         2.092034         0.262523
 C        -1.161792         1.836247        -0.064344
 O        -2.832856        -0.198208        -0.456613
 C        -1.768029        -0.586196         0.537525
 H         1.160637         0.894804         1.153962
 H        -0.769061        -0.183294         2.809645
 H        -1.523392         1.541485         2.918363
 H        -3.336445        -0.692584         2.227370
 H        -4.353213         0.783340         0.738728
 H        -3.152378         2.361924        -0.638863
 H        -2.663410         2.785550         1.137779
 H        -0.998119         1.521810        -1.116969
 H        -0.539320         2.738016         0.163328
 H        -1.253293        -1.441708         0.294979
