19
Iteration:    62charge 0 multiplicity 1
 O         0.703492         0.454774         0.684601
 C        -0.715429         0.590866         0.754863
 C        -1.296501         0.649676         2.156711
 C        -2.561462         0.021234         1.652642
 C        -3.321270         0.736819         0.569406
 C        -2.703115         2.128637         0.213134
 C        -1.185694         1.827213        -0.018499
 O        -2.911077        -0.333225        -0.429721
 C        -1.816028        -0.555614         0.456104
 H         0.995857        -0.199702         1.420015
 H        -0.797992        -0.131101         2.831535
 H        -1.151486         1.594402         2.756596
 H        -3.175209        -0.583160         2.351263
 H        -4.404135         0.821267         0.694925
 H        -3.302566         2.527676        -0.682846
 H        -2.942375         2.809833         1.114735
 H        -1.186760         1.610455        -1.115273
 H        -0.558437         2.728428         0.207773
 H        -1.336845        -1.587486         0.363192
