19
Iteration:  4150charge 0 multiplicity 1
 O         0.619184         0.279249         0.647358
 C        -0.675478         0.603032         0.748949
 C        -1.301465         0.735649         2.185834
 C        -2.581206         0.018339         1.658489
 C        -3.368988         0.709022         0.539705
 C        -2.757824         2.079871         0.379673
 C        -1.196998         1.938602         0.080197
 O        -2.779344        -0.287343        -0.568077
 C        -1.779319        -0.558132         0.531364
 H         0.767409        -0.063141        -0.229706
 H        -0.799976         0.054123         2.916920
 H        -1.234693         1.840489         2.486823
 H        -3.222387        -0.615137         2.259111
 H        -4.487433         0.526139         0.575565
 H        -2.996520         2.586923        -0.501421
 H        -2.972428         2.596569         1.349833
 H        -0.931249         1.945865        -0.970073
 H        -0.681625         2.748485         0.523677
 H        -1.317643        -1.491745         0.268826
