19
Iteration:   390
 O         0.635860         0.448163         0.551779
 C        -0.745510         0.565302         0.835837
 C        -1.262807         0.621326         2.214648
 C        -2.581600         0.031829         1.668262
 C        -3.324070         0.765981         0.521982
 C        -2.777178         2.068027         0.102221
 C        -1.181537         1.827014         0.147626
 O        -2.794396        -0.229442        -0.415355
 C        -1.798504        -0.556401         0.538683
 H         0.903774        -0.519415         0.679133
 H        -0.745465        -0.025695         2.918781
 H        -1.165805         1.593445         2.726968
 H        -3.187954        -0.615706         2.267324
 H        -4.446694         0.703315         0.398386
 H        -3.171078         2.115381        -0.958436
 H        -3.130799         2.992438         0.569580
 H        -0.795541         1.689062        -0.823375
 H        -0.686094         2.625125         0.632025
 H        -1.358397        -1.607118         0.493588
