19
Iteration:  1246
 O         0.699881         0.466787         0.626361
 C        -0.748394         0.573455         0.789894
 C        -1.338973         0.602971         2.248156
 C        -2.607473        -0.061991         1.667561
 C        -3.306778         0.780723         0.583457
 C        -2.665982         2.118652         0.281373
 C        -1.164482         1.708123        -0.108911
 O        -2.846615        -0.204199        -0.440705
 C        -1.829069        -0.576976         0.485132
 H         0.950128         1.342801         0.666743
 H        -0.865089        -0.149489         2.868526
 H        -1.465379         1.442905         2.863240
 H        -3.488777        -0.615684         2.174884
 H        -4.391447         0.657607         0.682018
 H        -3.181701         2.560714        -0.647959
 H        -2.742589         2.682828         1.250842
 H        -1.109964         1.466021        -1.134313
 H        -0.467250         2.572191         0.098251
 H        -1.329129        -1.582853         0.284486
