19
Iteration:  1731
 O         0.550202         0.240021         0.438554
 C        -0.757053         0.673485         0.796873
 C        -1.334516         0.593906         2.285600
 C        -2.560671        -0.096519         1.692431
 C        -3.266222         0.703689         0.553311
 C        -2.695983         2.096148         0.082767
 C        -1.177869         2.012720         0.167458
 O        -2.817378        -0.228061        -0.433373
 C        -1.778024        -0.549639         0.547198
 H         1.162001         0.910904         0.828769
 H        -0.771782        -0.166391         2.920430
 H        -1.466922         1.535533         2.824514
 H        -3.260094        -0.727655         2.280819
 H        -4.359735         0.653709         0.707992
 H        -3.024182         2.363275        -1.023070
 H        -3.049313         2.891123         0.770475
 H        -0.599698         2.109659        -0.872502
 H        -0.753680         2.838092         0.932297
 H        -1.138122        -1.494650         0.469031
