19
Iteration:  1652
 O         0.557603         0.241009         0.704818
 C        -0.763361         0.676316         0.781760
 C        -1.396832         0.739257         2.243079
 C        -2.456302        -0.130109         1.615732
 C        -3.309980         0.724975         0.594558
 C        -2.671809         2.060947         0.341646
 C        -1.190043         1.807145        -0.111545
 O        -2.865944        -0.193524        -0.435711
 C        -1.730543        -0.504304         0.369110
 H         1.239828         1.027982         0.884223
 H        -0.696557         0.213666         2.900279
 H        -1.728289         1.614220         2.713696
 H        -2.998667        -0.881085         2.144378
 H        -4.387117         0.816642         0.634039
 H        -3.325732         2.757840        -0.271495
 H        -2.629388         2.675075         1.275949
 H        -0.961289         1.547757        -1.197637
 H        -0.454590         2.730824        -0.104097
 H        -1.279579        -1.443481         0.141158
