19
Iteration:  1375
 O         0.694088         0.434246         0.755202
 C        -0.743918         0.581099         0.716368
 C        -1.272404         0.545400         2.200928
 C        -2.549921        -0.039196         1.672257
 C        -3.388629         0.803419         0.520007
 C        -2.681865         2.143424         0.306842
 C        -1.267275         1.650765        -0.098633
 O        -2.859715        -0.145432        -0.468981
 C        -1.767883        -0.629980         0.500085
 H         1.088759         1.421251         0.837113
 H        -0.699494        -0.139741         2.863430
 H        -1.378129         1.677697         2.682544
 H        -3.270605        -0.734264         2.198878
 H        -4.453559         0.685515         0.648357
 H        -3.167603         2.788944        -0.354472
 H        -2.689083         2.929208         1.097935
 H        -1.170480         1.404168        -1.163004
 H        -0.572485         2.529048         0.013180
 H        -1.350600        -1.528326         0.221337
