19
Iteration:  3769
 O         0.696101         0.344552         0.669048
 C        -0.727129         0.625730         0.835795
 C        -1.283188         0.685167         2.202123
 C        -2.572571         0.047075         1.757822
 C        -3.396299         0.684039         0.484842
 C        -2.761626         2.091237         0.345964
 C        -1.216244         1.812242        -0.004965
 O        -2.763296        -0.226828        -0.558096
 C        -1.808442        -0.533130         0.466021
 H         0.633769        -0.257967        -0.187785
 H        -0.648582        -0.099074         2.732595
 H        -1.309491         1.677147         2.666226
 H        -3.216202        -0.622358         2.370858
 H        -4.474344         0.710659         0.458650
 H        -3.321615         2.556394        -0.531597
 H        -2.844549         2.568429         1.349403
 H        -0.855805         1.751729        -1.077383
 H        -0.644823         2.759851         0.247700
 H        -1.428676        -1.554696         0.584402
