19
Iteration:   259charge 0 multiplicity 1
 O         0.565323         0.306195         0.408058
 C        -0.780325         0.579831         0.819080
 C        -1.289786         0.682331         2.311495
 C        -2.649145         0.100273         1.739755
 C        -3.342654         0.713884         0.455544
 C        -2.702206         2.077027         0.115784
 C        -1.147111         1.929745         0.197245
 O        -2.721247        -0.372150        -0.439022
 C        -1.788024        -0.568445         0.609294
 H         1.014020         1.152333         0.034671
 H        -0.834675        -0.215253         2.813237
 H        -1.167291         1.674297         2.804229
 H        -3.307012        -0.452617         2.405432
 H        -4.426818         0.686094         0.253419
 H        -3.022033         2.342613        -0.909615
 H        -3.055779         2.807350         0.828665
 H        -0.696842         2.109019        -0.814749
 H        -0.611437         2.696812         0.943669
 H        -1.383471        -1.613794         0.593141
