19
Iteration:  1140
 O         0.642902         0.340786         0.430881
 C        -0.691831         0.591146         0.795739
 C        -1.205235         0.618417         2.277261
 C        -2.660007         0.112676         1.768240
 C        -3.350195         0.756554         0.429736
 C        -2.777347         2.075586         0.118692
 C        -1.196357         1.894599         0.195427
 O        -2.802498        -0.337207        -0.455167
 C        -1.795142        -0.611882         0.595156
 H         1.178042         1.058622         0.773504
 H        -0.558059        -0.143661         2.846225
 H        -1.296649         1.657625         2.732158
 H        -3.256638        -0.482701         2.319647
 H        -4.464707         0.711382         0.246707
 H        -3.207756         2.524511        -0.749926
 H        -3.218147         2.862166         0.836713
 H        -0.810892         1.792674        -0.810939
 H        -0.672406         2.714280         0.704440
 H        -1.401517        -1.687670         0.757218
