19
Iteration:  1528
 O         0.647087         0.193558         0.739117
 C        -0.745858         0.660276         0.771009
 C        -1.288601         0.722875         2.167101
 C        -2.538417        -0.049777         1.587849
 C        -3.304939         0.683425         0.621032
 C        -2.745533         2.137300         0.370560
 C        -1.264709         1.791742        -0.070827
 O        -2.843282        -0.131782        -0.501043
 C        -1.727918        -0.532445         0.362795
 H         1.061955         0.777353         1.539810
 H        -0.794787         0.100835         2.885684
 H        -1.392717         1.674737         2.542521
 H        -2.964954        -0.780679         2.374737
 H        -4.404589         0.692606         0.586145
 H        -3.314580         2.368885        -0.485437
 H        -2.750356         2.820170         1.265883
 H        -1.274194         1.425576        -1.105192
 H        -0.733277         2.850575        -0.025987
 H        -1.276896        -1.564196         0.330708
