19
Iteration:  3296
 O         0.510642         0.149547         0.525219
 C        -0.727511         0.655452         0.814659
 C        -1.347786         0.676240         2.267881
 C        -2.531314        -0.094099         1.681014
 C        -3.375095         0.719081         0.530853
 C        -2.736646         2.093123         0.226684
 C        -1.189621         1.977897         0.093257
 O        -2.769023        -0.181845        -0.506126
 C        -1.649844        -0.526540         0.519269
 H         1.193038         0.731385         0.377869
 H        -0.802887         0.183317         3.070762
 H        -1.419046         1.663137         2.866579
 H        -3.169681        -0.774730         2.384153
 H        -4.447958         0.657829         0.620200
 H        -3.231888         2.255877        -0.751455
 H        -3.100040         2.785440         1.043316
 H        -1.020015         1.977075        -0.993981
 H        -0.543668         2.788264         0.383759
 H        -1.008184        -1.454210         0.521673
