19
Iteration:  2650
 O         0.658268         0.318156         0.660087
 C        -0.714099         0.627482         0.827157
 C        -1.331317         0.730940         2.221956
 C        -2.525858        -0.177694         1.715811
 C        -3.338147         0.735941         0.713925
 C        -2.676781         2.075655         0.222922
 C        -1.196420         1.838463        -0.093270
 O        -2.851946        -0.215978        -0.465778
 C        -1.834148        -0.569179         0.381917
 H         1.015293         1.205926         0.347460
 H        -0.727270         0.311251         3.008256
 H        -1.710015         1.763954         2.394043
 H        -3.325564        -0.841087         2.344468
 H        -4.458999         0.887958         0.699161
 H        -3.238906         2.452630        -0.664478
 H        -2.806997         2.736729         1.131152
 H        -0.871787         1.705026        -1.133093
 H        -0.500019         2.793569         0.198490
 H        -1.250644        -1.482720         0.122486
