19
Iteration:  3291charge 0 multiplicity 1
 O         0.534785         0.129698         0.545713
 C        -0.730329         0.671626         0.807169
 C        -1.296962         0.711260         2.256407
 C        -2.555979        -0.100096         1.682561
 C        -3.358673         0.729118         0.545041
 C        -2.718940         2.076033         0.233208
 C        -1.252034         1.935763         0.070573
 O        -2.755782        -0.170925        -0.483170
 C        -1.679562        -0.509341         0.497010
 H         1.210128         0.901895         0.410024
 H        -0.736414         0.066905         3.013286
 H        -1.546933         1.592751         2.863525
 H        -3.114829        -0.785734         2.230819
 H        -4.486646         0.658765         0.541835
 H        -3.144518         2.385112        -0.729853
 H        -3.247028         2.691719         0.981925
 H        -0.887847         1.999032        -0.976403
 H        -0.609942         2.765773         0.491233
 H        -1.166665        -1.478489         0.503038
