19
Iteration:  4344
 O         0.680966         0.303780         0.597930
 C        -0.820939         0.597920         0.766118
 C        -1.271676         0.658403         2.193782
 C        -2.547240         0.002986         1.724118
 C        -3.286429         0.766381         0.496615
 C        -2.770359         2.133227         0.268071
 C        -1.239632         1.908536         0.033851
 O        -2.854087        -0.284882        -0.439902
 C        -1.770521        -0.632035         0.436800
 H         1.235929         0.859928         1.157905
 H        -0.581422         0.032237         2.758331
 H        -1.346935         1.687013         2.598126
 H        -3.334579        -0.547144         2.279071
 H        -4.359624         0.695336         0.561153
 H        -3.160325         2.701752        -0.629574
 H        -2.760133         2.721214         1.232969
 H        -0.974872         1.679774        -0.982398
 H        -0.459361         2.634138         0.412603
 H        -1.387135        -1.680199         0.482495
