19
Iteration:  4881charge 0 multiplicity 1
 O         0.570314         0.392013         0.669125
 C        -0.760418         0.537151         0.801653
 C        -1.280680         0.702394         2.252771
 C        -2.560077         0.018512         1.620007
 C        -3.334635         0.724640         0.494003
 C        -2.710031         2.135642         0.317044
 C        -1.171678         1.813818         0.064157
 O        -2.786435        -0.237256        -0.529668
 C        -1.761879        -0.627159         0.484625
 H         1.019822         0.186561        -0.248519
 H        -0.811382        -0.010460         2.914779
 H        -1.390472         1.717207         2.592702
 H        -3.290738        -0.596110         2.226667
 H        -4.443051         0.815505         0.502648
 H        -3.192525         2.890104        -0.334477
 H        -2.889169         2.557788         1.305988
 H        -1.094687         1.749383        -1.052154
 H        -0.588567         2.574183         0.522737
 H        -1.283212        -1.702539         0.365834
