19
Iteration:  1025
 O         0.607368         0.374641         0.417844
 C        -0.788294         0.573594         0.852538
 C        -1.305511         0.593563         2.288852
 C        -2.600000         0.053209         1.722275
 C        -3.266369         0.719701         0.508558
 C        -2.688293         2.080997         0.103436
 C        -1.181848         1.938135         0.126825
 O        -2.821605        -0.295948        -0.418819
 C        -1.768696        -0.625337         0.585410
 H         1.037211         1.317387         0.395676
 H        -0.735063        -0.192384         2.851822
 H        -1.346274         1.636433         2.701056
 H        -3.403369        -0.568801         2.393295
 H        -4.404936         0.726459         0.449764
 H        -3.123157         2.382523        -0.879911
 H        -2.901138         2.813755         0.746160
 H        -0.720289         1.798612        -0.906725
 H        -0.825424         2.759323         0.752087
 H        -1.337718        -1.628268         0.691401
