19
Iteration:  2069charge 0 multiplicity 1
 O         0.623007         0.371187         0.674090
 C        -0.786431         0.638027         0.795616
 C        -1.337239         0.743355         2.174629
 C        -2.519529        -0.124366         1.677643
 C        -3.366930         0.755649         0.672936
 C        -2.629289         2.087516         0.209630
 C        -1.200110         1.813389        -0.024537
 O        -2.824605        -0.244502        -0.378152
 C        -1.795155        -0.577663         0.397166
 H         1.026625         0.946004         0.072477
 H        -0.842031         0.011182         2.832372
 H        -1.360072         1.578574         2.793100
 H        -3.006309        -0.923455         2.268223
 H        -4.469862         0.864824         0.663224
 H        -3.238832         2.222340        -0.769279
 H        -2.946981         2.947876         0.820941
 H        -1.036954         1.554560        -1.145515
 H        -0.465644         2.567232         0.218963
 H        -1.195653        -1.510244         0.120950
