19
Iteration:  1868charge 0 multiplicity 1
 O         0.636648         0.189280         0.702986
 C        -0.771486         0.623267         0.722176
 C        -1.231776         0.646689         2.227408
 C        -2.487504         0.026345         1.734219
 C        -3.336150         0.661001         0.561959
 C        -2.840984         2.082473         0.133875
 C        -1.238255         1.988935         0.164499
 O        -2.770444        -0.184007        -0.501267
 C        -1.778125        -0.523329         0.399511
 H         0.982940        -0.027007        -0.297638
 H        -0.736906         0.030640         2.872535
 H        -1.364607         1.590422         2.553107
 H        -3.053669        -0.531994         2.480209
 H        -4.404374         0.435360         0.672631
 H        -3.307265         2.524265        -0.690891
 H        -3.111581         2.706404         1.062896
 H        -0.855529         2.153305        -0.852212
 H        -0.735447         2.808921         0.753679
 H        -1.434536        -1.523662         0.333358
