19
Iteration:  3140
 O         0.587000         0.337199         0.486376
 C        -0.774596         0.611506         0.827806
 C        -1.349254         0.633906         2.350901
 C        -2.596901        -0.096436         1.717460
 C        -3.247000         0.794337         0.425655
 C        -2.661470         2.135934         0.165414
 C        -1.174357         1.907916         0.103950
 O        -2.795671        -0.277005        -0.468533
 C        -1.791304        -0.618418         0.542440
 H         0.991578         1.310455         0.377106
 H        -0.791290        -0.202850         2.925317
 H        -1.482515         1.570279         2.979378
 H        -3.185515        -0.751502         2.303461
 H        -4.262898         0.960743         0.711797
 H        -3.200249         2.533796        -0.659028
 H        -2.930119         2.804862         1.042649
 H        -1.097280         1.614877        -0.970454
 H        -0.488273         2.728061         0.450379
 H        -1.451159        -1.645695         0.382011
