19
Iteration:  2074
 O         0.611535         0.354566         0.708761
 C        -0.759820         0.649842         0.771915
 C        -1.355388         0.751897         2.172146
 C        -2.473344        -0.130426         1.677915
 C        -3.353659         0.732442         0.670860
 C        -2.656195         2.066140         0.269952
 C        -1.168145         1.808202        -0.058605
 O        -2.866272        -0.216091        -0.399331
 C        -1.777810        -0.604808         0.374137
 H         1.145207         1.072972         0.118707
 H        -0.825853         0.059305         2.848457
 H        -1.472336         1.833838         2.734108
 H        -3.081321        -0.760810         2.336559
 H        -4.438601         0.808946         0.612296
 H        -3.208277         2.197546        -0.659908
 H        -2.979208         2.990489         0.788789
 H        -1.108820         1.496173        -1.046796
 H        -0.439940         2.660779         0.104113
 H        -1.359367        -1.541324         0.120053
