19
Iteration:  1107
 O         0.563172         0.296548         0.639516
 C        -0.733990         0.674314         0.753011
 C        -1.311237         0.692184         2.200777
 C        -2.522711        -0.057007         1.708822
 C        -3.296909         0.746553         0.625153
 C        -2.742672         2.049679         0.171571
 C        -1.180464         1.865585        -0.034389
 O        -2.871017        -0.255544        -0.402211
 C        -1.727360        -0.564614         0.436818
 H         1.232442         0.962316         1.115402
 H        -0.587572         0.034901         2.828843
 H        -1.630240         1.618847         2.782290
 H        -3.122592        -0.742697         2.139666
 H        -4.419959         0.827384         0.597174
 H        -3.200846         2.375892        -0.748155
 H        -2.830030         2.795622         1.114665
 H        -0.989999         1.714293        -1.083441
 H        -0.571265         2.740149         0.240611
 H        -1.151246        -1.551263         0.311483
