19
Iteration:   477charge 0 multiplicity 1
 O         0.723017         0.453082         0.806445
 C        -0.723269         0.528380         0.725726
 C        -1.290782         0.692476         2.137563
 C        -2.613010        -0.000888         1.713514
 C        -3.369139         0.741339         0.545348
 C        -2.674499         2.065669         0.318616
 C        -1.298182         1.681828        -0.069358
 O        -2.763982        -0.133362        -0.490151
 C        -1.831001        -0.640494         0.496075
 H         1.078151         0.886656         0.096672
 H        -0.744820         0.061785         2.883761
 H        -1.218628         1.700709         2.599225
 H        -3.120220        -0.580677         2.493457
 H        -4.497677         0.761697         0.329049
 H        -3.199321         2.507152        -0.599090
 H        -2.752248         2.857489         1.113063
 H        -1.345552         1.353530        -1.153761
 H        -0.696810         2.528723        -0.165729
 H        -1.619873        -1.693583         0.379886
