19
Iteration:    54charge 0 multiplicity 1
 O         0.695257         0.512091         0.731718
 C        -0.728581         0.618377         0.753731
 C        -1.251384         0.658468         2.171780
 C        -2.625275        -0.012169         1.701796
 C        -3.332162         0.761410         0.571939
 C        -2.660635         2.016746         0.269614
 C        -1.178558         1.776647        -0.125221
 O        -2.918751        -0.290628        -0.457760
 C        -1.820412        -0.541778         0.459327
 H         0.996499        -0.292194         1.239143
 H        -0.800304        -0.238422         2.726144
 H        -1.247899         1.666760         2.648726
 H        -3.309400        -0.539895         2.364462
 H        -4.403105         0.932864         0.593836
 H        -3.179761         2.526390        -0.422116
 H        -2.709819         2.680587         1.202040
 H        -1.096496         1.592174        -1.126016
 H        -0.639451         2.685962        -0.028073
 H        -1.247356        -1.566194         0.219221
