19
Iteration:  4538charge 0 multiplicity 1
 O         0.602832         0.423618         0.692920
 C        -0.778730         0.597340         0.776203
 C        -1.324481         0.592378         2.218143
 C        -2.588517        -0.100375         1.693407
 C        -3.304715         0.725990         0.559071
 C        -2.610122         2.104748         0.257711
 C        -1.182028         1.811363        -0.017622
 O        -2.789595        -0.211013        -0.482249
 C        -1.860672        -0.534395         0.480090
 H         0.739580         0.885673        -0.259380
 H        -0.763551        -0.022620         2.927624
 H        -1.279484         1.460808         2.926673
 H        -3.278839        -0.682246         2.346002
 H        -4.394866         0.837793         0.533903
 H        -3.039080         2.341782        -0.705426
 H        -2.766688         2.800583         1.071402
 H        -0.822469         1.894182        -1.125174
 H        -0.560036         2.605602         0.423640
 H        -1.432018        -1.571841         0.328000
