19
Iteration:  2886
 O         0.637486         0.288922         0.501299
 C        -0.748214         0.587450         0.790900
 C        -1.324489         0.701805         2.303578
 C        -2.540333        -0.066200         1.734614
 C        -3.349282         0.693077         0.588104
 C        -2.710099         2.099665         0.181688
 C        -1.186926         1.891252         0.123073
 O        -2.850182        -0.250305        -0.519948
 C        -1.747977        -0.540558         0.479618
 H         1.039032         1.118972         0.550617
 H        -0.820552        -0.090445         2.872724
 H        -1.429519         1.739308         2.592613
 H        -3.198466        -0.600546         2.365413
 H        -4.440318         0.837757         0.644484
 H        -3.143064         2.294246        -0.825446
 H        -3.005721         2.914567         0.880340
 H        -0.749634         1.979451        -0.912170
 H        -0.526644         2.683372         0.688914
 H        -1.410737        -1.584300         0.454669
