19
Iteration:  4504
 O         0.697943         0.232003         0.770044
 C        -0.697860         0.567571         0.818301
 C        -1.295350         0.761124         2.198886
 C        -2.511408         0.028701         1.645309
 C        -3.340350         0.716954         0.487090
 C        -2.728480         2.123958         0.413309
 C        -1.274363         1.870824        -0.040882
 O        -2.821668        -0.272343        -0.520007
 C        -1.782961        -0.528643         0.399899
 H         0.868020         0.187075        -0.258962
 H        -0.942618         0.026206         2.940363
 H        -1.554368         1.769451         2.531107
 H        -3.202035        -0.675725         2.158068
 H        -4.435017         0.574577         0.614003
 H        -3.239711         2.724214        -0.320301
 H        -2.926181         2.672492         1.357911
 H        -1.366323         1.882127        -1.194704
 H        -0.772889         2.785544         0.341298
 H        -1.247312        -1.473639         0.210908
