19
Iteration:  3043
 O         0.611677         0.250700         0.500987
 C        -0.760982         0.591518         0.823047
 C        -1.308782         0.702723         2.301818
 C        -2.564364        -0.015537         1.727977
 C        -3.356675         0.738016         0.581689
 C        -2.754433         2.102481         0.191927
 C        -1.168761         1.895016         0.038316
 O        -2.743033        -0.232976        -0.499296
 C        -1.771737        -0.599600         0.482850
 H         1.138113         0.937983         1.059396
 H        -0.879704        -0.051888         2.950772
 H        -1.296074         1.727217         2.678163
 H        -3.182942        -0.692036         2.367903
 H        -4.400426         0.743543         0.436821
 H        -3.202458         2.503691        -0.697039
 H        -3.003887         2.845402         0.992415
 H        -1.099458         1.755973        -1.045950
 H        -0.819089         2.879845         0.473607
 H        -1.296425        -1.599172         0.416094
