19
Iteration:  2002charge 0 multiplicity 1
 O         0.619061         0.337081         0.562784
 C        -0.746189         0.609321         0.748085
 C        -1.362558         0.756167         2.287802
 C        -2.555818        -0.029763         1.721524
 C        -3.283249         0.678909         0.529238
 C        -2.700907         2.029305         0.234781
 C        -1.161454         1.962076         0.054487
 O        -2.775319        -0.239747        -0.441617
 C        -1.801575        -0.611316         0.515180
 H         0.684416        -0.240260        -0.314169
 H        -0.850333         0.135095         3.066507
 H        -1.549951         1.717355         2.694025
 H        -3.140767        -0.768491         2.385646
 H        -4.400086         0.689570         0.528306
 H        -3.211273         2.561369        -0.649534
 H        -3.040550         2.745920         1.003531
 H        -0.904211         2.048791        -1.074215
 H        -0.672756         2.808143         0.507220
 H        -1.443177        -1.673274         0.261964
