19
Iteration:  4376charge 0 multiplicity 1
 O         0.570110         0.211647         0.540628
 C        -0.803481         0.694937         0.847818
 C        -1.439755         0.708338         2.310617
 C        -2.533545        -0.063979         1.680633
 C        -3.306033         0.688186         0.612226
 C        -2.689580         1.988637         0.282224
 C        -1.178822         1.796908        -0.081545
 O        -2.764425        -0.102412        -0.473893
 C        -1.699542        -0.497606         0.447188
 H         1.299934         0.984412         0.581423
 H        -0.719092         0.287847         2.989038
 H        -1.560591         1.704766         2.774753
 H        -3.181348        -0.873518         2.098670
 H        -4.364232         0.701920         0.785836
 H        -3.358217         2.566776        -0.435181
 H        -2.794382         2.812601         0.979234
 H        -0.956247         1.430079        -1.052756
 H        -0.592782         2.724442         0.064789
 H        -1.232808        -1.559328         0.391386
