19
Iteration:  3386charge 0 multiplicity 1
 O         0.573367         0.297026         0.650259
 C        -0.786751         0.690449         0.756508
 C        -1.412213         0.663181         2.256771
 C        -2.511809        -0.140538         1.671539
 C        -3.338628         0.721719         0.669839
 C        -2.668499         2.076439         0.282753
 C        -1.144790         1.821096        -0.068593
 O        -2.811999        -0.210397        -0.462874
 C        -1.750972        -0.488671         0.413776
 H         1.112877         0.898723         1.046800
 H        -0.701759         0.059658         2.780749
 H        -1.413502         1.661450         2.684847
 H        -3.064278        -0.868612         2.318569
 H        -4.396284         0.850866         0.566336
 H        -3.217831         2.569448        -0.581130
 H        -2.741978         2.816273         1.055551
 H        -1.093751         1.600109        -1.122523
 H        -0.366951         2.556192        -0.053393
 H        -1.314911        -1.341942        -0.044697
