19
Iteration:  1774
 O         0.713692         0.248989         0.654573
 C        -0.714068         0.602452         0.802450
 C        -1.309738         0.666542         2.206224
 C        -2.578646        -0.017248         1.702237
 C        -3.367294         0.704324         0.525517
 C        -2.745848         2.036088         0.278787
 C        -1.198017         1.918951         0.061031
 O        -2.894949        -0.189677        -0.548241
 C        -1.717274        -0.560716         0.467675
 H         1.208054         0.920401         0.306209
 H        -0.797314        -0.087201         2.920621
 H        -1.495650         1.738880         2.670233
 H        -3.111670        -0.709334         2.357205
 H        -4.464741         0.807666         0.549239
 H        -3.336317         2.617524        -0.533297
 H        -2.917613         2.697840         1.141413
 H        -0.855766         1.919488        -1.042338
 H        -0.727758         2.886043         0.448940
 H        -1.405066        -1.635592         0.388683
