19
Iteration:  3379
 O         0.591811         0.336008         0.672907
 C        -0.747636         0.617886         0.815977
 C        -1.332406         0.638283         2.223866
 C        -2.568047        -0.145644         1.660207
 C        -3.340667         0.674898         0.606653
 C        -2.671090         2.118092         0.258242
 C        -1.137399         1.832878        -0.112620
 O        -2.855081        -0.163067        -0.426216
 C        -1.758247        -0.468045         0.409222
 H         1.215467         0.926339         1.063732
 H        -0.705374        -0.097860         2.789420
 H        -1.522187         1.609271         2.661689
 H        -3.128689        -0.860128         2.201243
 H        -4.464657         0.615237         0.757835
 H        -3.342922         2.554641        -0.481287
 H        -2.721947         2.905715         1.059917
 H        -1.265761         1.471961        -1.192650
 H        -0.324551         2.673699        -0.041141
 H        -1.239806        -1.469171         0.333339
