19
Iteration:   682charge 0 multiplicity 1
 O         0.573182         0.352581         0.532346
 C        -0.770047         0.640994         0.829592
 C        -1.425547         0.721957         2.247630
 C        -2.617587        -0.030823         1.724650
 C        -3.347102         0.711120         0.524512
 C        -2.602116         2.111680         0.215915
 C        -1.136351         1.870293         0.036133
 O        -2.765325        -0.334489        -0.401699
 C        -1.706192        -0.555362         0.537715
 H         0.583274         0.484082        -0.368402
 H        -0.860774         0.102577         2.911385
 H        -1.483663         1.728335         2.649811
 H        -3.154268        -0.788331         2.443317
 H        -4.374129         0.710656         0.377975
 H        -3.011632         2.496455        -0.830834
 H        -2.953308         2.844136         0.969777
 H        -0.912035         1.649288        -1.025254
 H        -0.522186         2.693671         0.293980
 H        -1.351487        -1.534430         0.538535
