19
Iteration:  3548
 O         0.566323         0.281000         0.511767
 C        -0.729009         0.677890         0.826804
 C        -1.351628         0.696459         2.258650
 C        -2.637667        -0.104388         1.762546
 C        -3.298538         0.727406         0.545294
 C        -2.671336         2.071897         0.270364
 C        -1.162173         1.825332        -0.008637
 O        -2.779794        -0.200223        -0.514192
 C        -1.763917        -0.553286         0.557322
 H         0.947107         1.097683         0.443086
 H        -0.671656         0.087863         2.836461
 H        -1.462491         1.689160         2.818110
 H        -3.236430        -0.855864         2.412291
 H        -4.329377         0.696616         0.273332
 H        -3.301117         2.647641        -0.435664
 H        -2.837906         2.690727         1.176480
 H        -1.005643         1.589495        -1.090668
 H        -0.489183         2.711318         0.197136
 H        -1.203832        -1.431417         0.295738
