19
Iteration:  2348
 O         0.644241         0.396286         0.607440
 C        -0.758370         0.622217         0.797168
 C        -1.269443         0.596181         2.156415
 C        -2.572443         0.032293         1.678536
 C        -3.346615         0.739163         0.538461
 C        -2.749853         2.114027         0.252314
 C        -1.195200         1.816973         0.052976
 O        -2.813060        -0.289829        -0.467174
 C        -1.767864        -0.542358         0.579953
 H         0.809882         0.818259        -0.164459
 H        -0.788353        -0.218089         2.723006
 H        -1.178176         1.506778         2.758689
 H        -3.217985        -0.659662         2.213367
 H        -4.386415         0.523358         0.728273
 H        -3.250805         2.559796        -0.697288
 H        -2.778482         2.644498         1.276109
 H        -1.057194         1.643328        -1.020562
 H        -0.574014         2.789550         0.132362
 H        -1.335341        -1.535306         0.576938
