19
Iteration:   677
 O         0.581506         0.333600         0.595957
 C        -0.756962         0.651977         0.830785
 C        -1.402997         0.714611         2.224190
 C        -2.594634        -0.073192         1.710351
 C        -3.321048         0.745026         0.538039
 C        -2.642800         2.090091         0.173307
 C        -1.151620         1.898283        -0.025184
 O        -2.791571        -0.322333        -0.401908
 C        -1.724274        -0.530551         0.556295
 H         0.698516         0.616066        -0.406192
 H        -0.883812        -0.063972         2.884719
 H        -1.447800         1.755702         2.659208
 H        -3.115792        -0.742446         2.298224
 H        -4.487990         0.787764         0.565912
 H        -2.987071         2.477687        -0.712008
 H        -2.869152         2.735809         1.075484
 H        -0.983592         1.452904        -1.022677
 H        -0.554708         2.774230         0.394693
 H        -1.250703        -1.613374         0.507800
