19
Iteration:   110charge 0 multiplicity 1
 O         0.471797         0.191542         0.349761
 C        -0.756895         0.685577         0.825085
 C        -1.323963         0.683958         2.310330
 C        -2.587721         0.069416         1.720681
 C        -3.356662         0.648836         0.529419
 C        -2.727406         2.032350         0.108625
 C        -1.125882         1.979705         0.225113
 O        -2.690661        -0.259959        -0.463985
 C        -1.708730        -0.518822         0.563969
 H         1.145388         0.685319         0.689509
 H        -0.878255        -0.141457         2.981986
 H        -1.413954         1.546291         3.013300
 H        -3.206543        -0.516071         2.371519
 H        -4.449525         0.653424         0.488407
 H        -2.887508         2.010548        -0.895614
 H        -3.196638         2.985032         0.502538
 H        -0.876555         2.001121        -0.776568
 H        -0.818114         2.796751         0.781210
 H        -1.245059        -1.585929         0.700060
