19
Iteration:  3153
 O         0.552212         0.283298         0.503188
 C        -0.780119         0.641657         0.824386
 C        -1.342821         0.644561         2.276113
 C        -2.578151        -0.039489         1.674856
 C        -3.359039         0.683384         0.540035
 C        -2.661138         2.186994         0.223757
 C        -1.150620         1.926209         0.096407
 O        -2.789580        -0.306869        -0.436360
 C        -1.751642        -0.579794         0.474494
 H         1.111959         0.988420         0.339594
 H        -0.847134        -0.082278         2.968393
 H        -1.424077         1.603981         2.852324
 H        -3.283982        -0.627523         2.360479
 H        -4.367423         0.586244         0.233728
 H        -2.842870         2.563950        -0.776485
 H        -3.022951         2.898142         0.981821
 H        -0.711746         1.941979        -0.932495
 H        -0.534718         2.792805         0.642886
 H        -1.177886        -1.542437         0.375748
