19
Iteration:  4446
 O         0.664969         0.441521         0.617348
 C        -0.714050         0.583095         0.877302
 C        -1.264959         0.618703         2.243430
 C        -2.601294        -0.094902         1.638021
 C        -3.287465         0.772962         0.505504
 C        -2.731051         2.101017         0.214184
 C        -1.104551         1.852747         0.085097
 O        -2.905548        -0.263846        -0.452303
 C        -1.851471        -0.570751         0.504793
 H         0.664047         0.563534        -0.328721
 H        -0.752962         0.018238         2.990692
 H        -1.421474         1.550724         2.715507
 H        -3.266528        -0.762266         2.175502
 H        -4.391293         0.689230         0.568505
 H        -2.998282         2.418126        -0.786131
 H        -3.030779         2.964273         0.854013
 H        -0.841020         1.699286        -0.986620
 H        -0.427653         2.688703         0.464233
 H        -1.402434        -1.510034         0.317083
