19
Iteration:  2982charge 0 multiplicity 1
 O         0.551023         0.251463         0.580583
 C        -0.740931         0.670118         0.788429
 C        -1.382518         0.669238         2.214957
 C        -2.530995        -0.109938         1.674018
 C        -3.259711         0.760556         0.544863
 C        -2.662925         2.060774         0.215090
 C        -1.166221         1.934703         0.038362
 O        -2.876794        -0.254257        -0.384098
 C        -1.723713        -0.562392         0.435922
 H         1.112659         1.038609         0.581349
 H        -0.819919         0.203646         3.126891
 H        -1.689242         1.742297         2.625366
 H        -3.044842        -0.851984         2.377962
 H        -4.399942         0.735124         0.689006
 H        -3.104957         2.562954        -0.716997
 H        -2.829291         2.693554         1.069226
 H        -0.907585         1.841184        -1.045110
 H        -0.673199         2.863014         0.268801
 H        -1.206310        -1.552727         0.375620
