19
Iteration:   504
 O         0.669658         0.466286         0.787850
 C        -0.737597         0.674440         0.762035
 C        -1.345569         0.643247         2.264998
 C        -2.581346        -0.054968         1.656353
 C        -3.333939         0.747179         0.546658
 C        -2.562859         2.096519         0.231380
 C        -1.139768         1.814808        -0.135283
 O        -2.971966        -0.334534        -0.448154
 C        -1.808213        -0.622096         0.454890
 H         1.004728         0.973159         0.103576
 H        -0.609287         0.081017         2.912703
 H        -1.401768         1.552211         2.914431
 H        -3.270679        -0.689464         2.250147
 H        -4.389255         0.853538         0.613912
 H        -3.143064         2.800782        -0.324509
 H        -2.498843         2.638075         1.230552
 H        -1.089870         1.405132        -1.136566
 H        -0.511833         2.742374        -0.304121
 H        -1.521432        -1.740097         0.375125
