19
Iteration:  3875charge 0 multiplicity 1
 O         0.528633         0.269635         0.475630
 C        -0.765558         0.659707         0.769662
 C        -1.359690         0.739086         2.238743
 C        -2.542719        -0.067939         1.723077
 C        -3.236703         0.668581         0.484240
 C        -2.666157         2.084833         0.238121
 C        -1.174449         1.903748         0.085509
 O        -2.792569        -0.255418        -0.479799
 C        -1.793265        -0.584063         0.537307
 H         1.329549         0.811093         0.925214
 H        -0.994366         0.089849         2.989428
 H        -1.371325         1.664318         2.828785
 H        -3.300248        -0.462057         2.490610
 H        -4.376209         0.936805         0.439436
 H        -3.243357         2.557428        -0.534247
 H        -3.069156         2.672183         1.107621
 H        -0.901884         1.884787        -0.953725
 H        -0.555950         2.573638         0.683306
 H        -1.208909        -1.494748         0.594389
