19
Iteration:   581charge 0 multiplicity 1
 O         0.597876         0.292058         0.545153
 C        -0.747373         0.604626         0.781163
 C        -1.336821         0.676584         2.299672
 C        -2.609214         0.067652         1.686347
 C        -3.320576         0.727052         0.448288
 C        -2.711883         2.121160         0.180134
 C        -1.240188         1.935536         0.047250
 O        -2.677659        -0.328747        -0.439083
 C        -1.755346        -0.526461         0.631391
 H         0.601253        -0.263825        -0.304396
 H        -0.994291        -0.213681         2.905479
 H        -1.250291         1.629378         2.886462
 H        -3.185250        -0.603934         2.368978
 H        -4.382356         0.691429         0.364368
 H        -3.199244         2.516193        -0.728565
 H        -3.048217         2.733733         1.111133
 H        -0.987112         1.933647        -0.962325
 H        -0.754146         2.765446         0.575549
 H        -1.236344        -1.556416         0.633026
