19
Iteration:   183charge 0 multiplicity 1
 O         0.710013         0.446656         0.863041
 C        -0.776112         0.645254         0.744202
 C        -1.365214         0.654292         2.219963
 C        -2.468402        -0.136375         1.700818
 C        -3.305048         0.767105         0.625863
 C        -2.707419         2.147286         0.292136
 C        -1.207881         1.730110        -0.266947
 O        -2.919823        -0.196171        -0.474209
 C        -1.749739        -0.591192         0.409525
 H         1.128812        -0.168895         0.286215
 H        -0.825135         0.160124         3.100495
 H        -1.643958         1.569589         2.784088
 H        -3.178638        -0.682433         2.328829
 H        -4.356658         0.758672         0.728164
 H        -3.137704         2.815668        -0.460137
 H        -2.670067         2.801756         1.269085
 H        -1.345335         1.274823        -1.262082
 H        -0.594201         2.726325        -0.090686
 H        -1.436311        -1.538751        -0.167675
