19
Iteration:  2442
 O         0.620059         0.302594         0.630264
 C        -0.726321         0.648513         0.762835
 C        -1.239053         0.608445         2.249226
 C        -2.551679         0.078007         1.673370
 C        -3.329209         0.687902         0.550378
 C        -2.762460         2.101556         0.173856
 C        -1.231200         1.987130         0.060859
 O        -2.860219        -0.358055        -0.411923
 C        -1.751758        -0.524137         0.493639
 H         1.004224         0.329310        -0.350852
 H        -0.689612        -0.242484         2.680383
 H        -1.070293         1.466666         2.975888
 H        -3.121414        -0.629958         2.299674
 H        -4.436403         0.828071         0.672676
 H        -3.076161         2.354297        -0.834853
 H        -3.181256         2.725809         0.973715
 H        -0.895709         2.095145        -1.011786
 H        -0.711551         2.718712         0.670327
 H        -1.257886        -1.492414         0.304176
