19
Iteration:  4867
 O         0.577185         0.377748         0.583216
 C        -0.820065         0.589440         0.791713
 C        -1.397954         0.688191         2.169142
 C        -2.626540        -0.060097         1.677299
 C        -3.286283         0.764548         0.513056
 C        -2.627616         2.116085         0.356646
 C        -1.176467         1.866573         0.104944
 O        -2.703369        -0.254948        -0.535676
 C        -1.775730        -0.614034         0.525627
 H         0.441023         0.279518        -0.294307
 H        -0.905967         0.050914         2.900681
 H        -1.348909         1.732683         2.637719
 H        -3.123305        -0.622656         2.508020
 H        -4.387040         0.628595         0.478545
 H        -3.111508         2.584690        -0.542093
 H        -2.695168         2.819063         1.245233
 H        -0.879710         1.719222        -0.896797
 H        -0.553242         2.636593         0.476019
 H        -1.263690        -1.684398         0.500964
