19
Iteration:   620charge 0 multiplicity 1
 O         0.712989         0.414644         0.802884
 C        -0.724488         0.584680         0.771288
 C        -1.369454         0.716697         2.201220
 C        -2.553798        -0.060811         1.711749
 C        -3.327493         0.740110         0.568990
 C        -2.688782         2.061872         0.270703
 C        -1.215031         1.757674        -0.166111
 O        -2.870820        -0.213494        -0.447238
 C        -1.778346        -0.601428         0.440649
 H         1.090048         0.593987        -0.013620
 H        -0.761995         0.242254         2.994031
 H        -1.587279         1.705575         2.622770
 H        -3.189150        -0.680746         2.306905
 H        -4.482161         0.783615         0.682635
 H        -3.119048         2.588831        -0.559698
 H        -2.689807         2.817646         1.016533
 H        -1.090248         1.682592        -1.303489
 H        -0.549051         2.642810         0.055938
 H        -1.581155        -1.665832         0.372039
