19
Iteration:  2737charge 0 multiplicity 1
 O         0.527336         0.200507         0.484700
 C        -0.788088         0.639655         0.773637
 C        -1.364612         0.744632         2.282776
 C        -2.506365        -0.094969         1.762512
 C        -3.301468         0.639679         0.575696
 C        -2.678628         2.082692         0.194192
 C        -1.146888         1.966240         0.095023
 O        -2.799798        -0.223455        -0.466020
 C        -1.734073        -0.528023         0.469055
 H         1.268235         0.942216         0.623961
 H        -0.660066         0.295254         2.952007
 H        -1.709963         1.687032         2.663441
 H        -3.156923        -0.729493         2.543666
 H        -4.397643         0.504841         0.491046
 H        -3.103425         2.440827        -0.709655
 H        -3.140901         2.883960         0.755540
 H        -0.983371         1.941948        -0.969123
 H        -0.684606         2.770572         0.761679
 H        -1.207326        -1.461509         0.187184
