19
Iteration:  4041charge 0 multiplicity 1
 O         0.615781         0.257715         0.585464
 C        -0.757107         0.575532         0.804160
 C        -1.370349         0.737619         2.252695
 C        -2.585923        -0.018530         1.690376
 C        -3.374352         0.684013         0.563249
 C        -2.714378         2.061755         0.260942
 C        -1.128120         1.894506         0.043039
 O        -2.787436        -0.244942        -0.453473
 C        -1.727451        -0.513946         0.445116
 H         0.853239         0.646499        -0.190593
 H        -0.709226         0.212662         2.957219
 H        -1.541484         1.702616         2.785859
 H        -3.212155        -0.709173         2.298735
 H        -4.508004         0.766250         0.401335
 H        -3.205613         2.726188        -0.417402
 H        -2.683566         2.779249         1.167759
 H        -0.920679         1.698384        -1.040712
 H        -0.546134         2.677484         0.452912
 H        -1.263362        -1.446465         0.197938
