19
Iteration:  3233charge 0 multiplicity 1
 O         0.641524         0.429297         0.588982
 C        -0.755863         0.616771         0.822355
 C        -1.339430         0.570543         2.262198
 C        -2.629351        -0.079665         1.724934
 C        -3.322703         0.710789         0.600934
 C        -2.660942         2.131365         0.287869
 C        -1.114414         1.831996        -0.145553
 O        -2.862994        -0.220235        -0.511617
 C        -1.770122        -0.577545         0.444288
 H         1.077728         0.952700         1.210773
 H        -0.916058        -0.124523         2.963504
 H        -1.529566         1.528234         2.752666
 H        -3.310260        -0.542561         2.541667
 H        -4.434871         0.804271         0.622419
 H        -3.166480         2.940441        -0.327929
 H        -2.722685         2.459303         1.317945
 H        -1.049097         1.326264        -1.134396
 H        -0.379199         2.703970         0.098174
 H        -1.288579        -1.527999         0.180696
