19
Iteration:   494charge 0 multiplicity 1
 O         0.693142         0.502086         0.811529
 C        -0.709940         0.558611         0.807919
 C        -1.317706         0.666929         2.204067
 C        -2.581613         0.011538         1.627586
 C        -3.358165         0.755689         0.549019
 C        -2.647062         2.100727         0.298660
 C        -1.181274         1.688684        -0.193657
 O        -2.921483        -0.266923        -0.454186
 C        -1.804668        -0.589810         0.464875
 H         1.031690         1.051950         0.182701
 H        -0.764275        -0.121623         2.731551
 H        -1.388301         1.665198         2.631227
 H        -3.300329        -0.598811         2.254196
 H        -4.399566         0.730295         0.731892
 H        -3.113174         2.861252        -0.319079
 H        -2.550011         2.440588         1.302199
 H        -1.220899         1.316709        -1.263167
 H        -0.428033         2.513929         0.022344
 H        -1.386509        -1.612070         0.350119
