19
Iteration:   302
 O         0.659583         0.244317         0.594085
 C        -0.741646         0.633925         0.774249
 C        -1.284683         0.704394         2.228870
 C        -2.563590        -0.031953         1.693991
 C        -3.385362         0.704772         0.614827
 C        -2.748934         2.097623         0.144479
 C        -1.221386         1.891132         0.001247
 O        -2.807671        -0.234990        -0.430002
 C        -1.744667        -0.528812         0.473259
 H         1.023198         0.618744         1.504446
 H        -0.787216        -0.047013         2.896810
 H        -1.364383         1.688920         2.763185
 H        -3.094179        -0.726167         2.357305
 H        -4.541223         0.601264         0.717831
 H        -3.165640         2.270256        -0.940484
 H        -3.003272         2.995433         0.671554
 H        -0.917806         1.710333        -1.049258
 H        -0.698483         2.878100         0.354207
 H        -1.173740        -1.478856         0.361096
