19
Iteration:  1974
 O         0.593855         0.319200         0.785178
 C        -0.743245         0.655958         0.751811
 C        -1.320831         0.684632         2.227797
 C        -2.460700        -0.107197         1.677555
 C        -3.341547         0.717190         0.618757
 C        -2.707920         2.081451         0.273202
 C        -1.187277         1.840894        -0.118120
 O        -2.881026        -0.221787        -0.444820
 C        -1.711307        -0.447419         0.404613
 H         0.868008        -0.106057        -0.088127
 H        -0.750537         0.158397         3.027442
 H        -1.596453         1.713924         2.743521
 H        -2.953798        -0.948276         2.137890
 H        -4.424670         0.704459         0.711923
 H        -3.266235         2.436022        -0.623233
 H        -2.914084         2.799327         1.094053
 H        -1.234497         1.517006        -1.131288
 H        -0.558550         2.776901        -0.031849
 H        -1.275253        -1.395859         0.133987
