19
Iteration:  3838charge 0 multiplicity 1
 O         0.662639         0.253600         0.686679
 C        -0.727469         0.633080         0.824379
 C        -1.233146         0.651726         2.235458
 C        -2.525193        -0.027405         1.666570
 C        -3.328280         0.766344         0.538004
 C        -2.772305         2.072604         0.176189
 C        -1.216607         1.836994         0.041604
 O        -2.931737        -0.208836        -0.477702
 C        -1.764701        -0.504552         0.483251
 H         1.236582         1.102751         0.590916
 H        -0.718301        -0.267330         2.687162
 H        -1.357132         1.581523         2.845772
 H        -2.924999        -0.699989         2.367152
 H        -4.368111         0.603722         0.588576
 H        -3.249216         2.199006        -0.859651
 H        -3.002057         2.913007         0.881762
 H        -0.890224         1.745471        -1.000165
 H        -0.653768         2.744865         0.286645
 H        -1.335220        -1.470590         0.124420
