19
Iteration:    22charge 0 multiplicity 1
 O         0.654334         0.537411         0.672528
 C        -0.770050         0.566485         0.790903
 C        -1.419986         0.687161         2.228491
 C        -2.579834        -0.140432         1.685902
 C        -3.252403         0.819562         0.636306
 C        -2.620379         2.192467         0.326540
 C        -1.258698         1.694618        -0.211439
 O        -2.797361        -0.211826        -0.457508
 C        -1.762561        -0.640681         0.460869
 H         0.995858        -0.335598         0.803020
 H        -0.882397         0.206720         3.085977
 H        -1.711028         1.663145         2.632693
 H        -3.284535        -0.745448         2.256106
 H        -4.334702         0.804523         0.650662
 H        -3.125332         2.680543        -0.422489
 H        -2.580235         2.872050         1.195426
 H        -1.437388         1.138890        -1.071437
 H        -0.441330         2.357748        -0.351060
 H        -1.316055        -1.673321         0.208364
