19
Iteration:  3942
 O         0.611534         0.355937         0.738460
 C        -0.764800         0.616154         0.757177
 C        -1.291615         0.666082         2.257689
 C        -2.538472        -0.108416         1.692254
 C        -3.304968         0.769225         0.576112
 C        -2.684379         2.068248         0.230719
 C        -1.167541         1.835412        -0.062630
 O        -2.941571        -0.210281        -0.479855
 C        -1.721436        -0.566352         0.442395
 H         1.049035         0.912063         0.164201
 H        -0.575315         0.161007         2.886019
 H        -1.278578         1.672685         2.686903
 H        -3.098611        -0.969645         2.145117
 H        -4.458358         0.961821         0.709635
 H        -2.955962         2.536245        -0.678195
 H        -2.896864         2.680132         1.130977
 H        -1.024132         1.628943        -1.136741
 H        -0.631553         2.647765         0.343866
 H        -1.550746        -1.611259         0.327918
