19
Iteration:  3573charge 0 multiplicity 1
 O         0.572365         0.300643         0.467999
 C        -0.693081         0.637265         0.827521
 C        -1.345798         0.602325         2.342616
 C        -2.555637         0.029261         1.697819
 C        -3.313779         0.777547         0.596023
 C        -2.704213         2.123012         0.158780
 C        -1.228972         1.838369         0.077911
 O        -2.782439        -0.271987        -0.465998
 C        -1.774610        -0.600310         0.506304
 H         1.090369         1.128462         0.570936
 H        -0.870644        -0.145247         3.062430
 H        -1.439457         1.573444         2.905855
 H        -3.140376        -0.647396         2.296284
 H        -4.355299         0.572664         0.421685
 H        -3.119788         2.551303        -0.843497
 H        -2.931989         2.957645         0.856885
 H        -0.906079         1.818444        -1.016548
 H        -0.653033         2.729615         0.368714
 H        -1.296434        -1.576696         0.297298
