19
Iteration:   624
 O         0.724320         0.399730         0.843123
 C        -0.712888         0.592853         0.744757
 C        -1.349985         0.701442         2.168039
 C        -2.562504        -0.043021         1.678077
 C        -3.342652         0.753265         0.595970
 C        -2.716807         2.051018         0.266385
 C        -1.221910         1.735630        -0.172609
 O        -2.875209        -0.191373        -0.432245
 C        -1.772626        -0.589403         0.439396
 H         1.243250         0.697988        -0.017647
 H        -0.615399         0.238526         2.938039
 H        -1.605223         1.751203         2.562326
 H        -3.229045        -0.692644         2.244096
 H        -4.430645         0.720775         0.670196
 H        -3.181681         2.510922        -0.619302
 H        -2.727255         2.881184         1.135634
 H        -1.099893         1.582033        -1.228736
 H        -0.600390         2.620990         0.124611
 H        -1.561856        -1.750294         0.423206
