19
Iteration:   797
 O         0.693191         0.410088         0.740833
 C        -0.666549         0.635299         0.750376
 C        -1.317810         0.696636         2.208134
 C        -2.552837         0.008522         1.643680
 C        -3.373454         0.734021         0.539731
 C        -2.737322         2.064030         0.323687
 C        -1.215604         1.710284        -0.142137
 O        -2.828321        -0.202016        -0.457323
 C        -1.865665        -0.673523         0.490953
 H         1.190331         1.161580         0.497831
 H        -0.709575        -0.029077         2.821535
 H        -1.248703         1.660793         2.762699
 H        -3.150234        -0.479636         2.318198
 H        -4.543204         0.769988         0.683566
 H        -3.105810         2.760255        -0.508590
 H        -2.680190         2.552782         1.328026
 H        -1.202936         1.537662        -1.280796
 H        -0.504668         2.722255        -0.009959
 H        -1.509041        -1.775414         0.516684
