19
Iteration:  2094
 O         0.719129         0.273347         0.778390
 C        -0.737831         0.617585         0.750972
 C        -1.278620         0.754379         2.163100
 C        -2.518671        -0.097394         1.733637
 C        -3.320915         0.681709         0.617084
 C        -2.698997         2.049789         0.244710
 C        -1.278757         1.836552        -0.163102
 O        -2.919937        -0.185660        -0.512304
 C        -1.799680        -0.548392         0.463299
 H         1.258988         1.097020         0.487045
 H        -0.665714         0.482257         3.031515
 H        -1.581344         1.801195         2.569241
 H        -3.023253        -0.849771         2.222095
 H        -4.344037         0.717339         0.931848
 H        -3.448760         2.734103        -0.339229
 H        -2.697000         2.434907         1.299943
 H        -1.124234         1.698345        -1.198710
 H        -0.670267         2.716402         0.162241
 H        -1.267090        -1.457205         0.296076
