19
Iteration:  3950charge 0 multiplicity 1
 O         0.668951         0.379482         0.739296
 C        -0.721189         0.607586         0.768971
 C        -1.325499         0.634909         2.246550
 C        -2.525065        -0.098255         1.657920
 C        -3.344031         0.751843         0.555162
 C        -2.608287         2.090701         0.184047
 C        -1.151362         1.847328        -0.012337
 O        -3.010225        -0.217875        -0.455531
 C        -1.751321        -0.574376         0.457585
 H         0.991300         0.817569        -0.050590
 H        -0.543992         0.184495         2.891289
 H        -1.658932         1.649152         2.736166
 H        -3.137653        -0.884857         2.219604
 H        -4.411220         0.611374         0.829693
 H        -3.254513         2.604568        -0.555908
 H        -2.795272         2.817658         1.048230
 H        -1.016504         1.646393        -1.061939
 H        -0.612072         2.773140         0.254608
 H        -1.357449        -1.607277         0.295965
