19
Iteration:  1797charge 0 multiplicity 1
 O         0.658177         0.386008         0.730952
 C        -0.785981         0.586808         0.795841
 C        -1.304250         0.590270         2.193725
 C        -2.580251        -0.038029         1.630588
 C        -3.336255         0.729031         0.528079
 C        -2.669286         2.152473         0.363520
 C        -1.240480         1.729247        -0.038945
 O        -2.754012        -0.141159        -0.491719
 C        -1.823483        -0.582775         0.476276
 H         1.138787         1.081655         0.111431
 H        -0.734577        -0.238396         2.775880
 H        -1.440213         1.604810         2.742416
 H        -3.205526        -0.702693         2.257062
 H        -4.430027         0.612815         0.615834
 H        -3.274224         2.832335        -0.369435
 H        -2.698749         2.781514         1.273466
 H        -1.342877         1.381784        -1.161236
 H        -0.617986         2.645294        -0.267538
 H        -1.354334        -1.603468         0.249522
