19
Iteration:  3084
 O         0.599624         0.203755         0.739973
 C        -0.719257         0.632195         0.736665
 C        -1.328787         0.720940         2.230480
 C        -2.531739        -0.074871         1.662665
 C        -3.355645         0.713649         0.578660
 C        -2.691494         2.118108         0.320796
 C        -1.249859         1.949007        -0.104920
 O        -2.817455        -0.264457        -0.500893
 C        -1.752187        -0.552081         0.393466
 H         1.236450         0.929534         0.687795
 H        -0.806300         0.344305         3.211120
 H        -1.505816         1.765005         2.752023
 H        -2.986911        -0.701953         2.317712
 H        -4.422948         0.653199         0.879574
 H        -3.300806         2.585969        -0.421750
 H        -2.622677         2.753401         1.253463
 H        -1.061344         1.632626        -1.179877
 H        -0.504026         2.762259         0.208870
 H        -1.371784        -1.529125         0.085142
