19
Iteration:  4953
 O         0.663847         0.382760         0.681210
 C        -0.726503         0.622611         0.785737
 C        -1.371485         0.657142         2.225543
 C        -2.571634        -0.096269         1.694861
 C        -3.345722         0.719509         0.533266
 C        -2.691584         2.107888         0.317859
 C        -1.086752         1.921748         0.030774
 O        -2.846848        -0.239576        -0.497010
 C        -1.840942        -0.660745         0.420643
 H         0.869217         0.638020        -0.307432
 H        -0.742656         0.017369         2.847800
 H        -1.535330         1.684985         2.676301
 H        -3.361434        -0.682826         2.158695
 H        -4.422019         0.753724         0.737747
 H        -3.152062         2.595613        -0.562505
 H        -2.719234         2.945710         1.028552
 H        -0.829496         1.688659        -1.011682
 H        -0.462191         2.770423         0.451023
 H        -1.476460        -1.651758         0.372297
