19
Iteration:  4490charge 0 multiplicity 1
 O         0.646237         0.204446         0.760685
 C        -0.732176         0.681634         0.730562
 C        -1.272988         0.699920         2.203236
 C        -2.546562        -0.039601         1.655283
 C        -3.381102         0.702617         0.548300
 C        -2.787423         2.069777         0.289378
 C        -1.276363         1.900793         0.046577
 O        -2.787096        -0.167525        -0.550191
 C        -1.713277        -0.515503         0.474388
 H         0.946385        -0.113843        -0.038603
 H        -0.601107         0.145201         2.829787
 H        -1.221890         1.603531         2.727152
 H        -2.963686        -0.704469         2.403101
 H        -4.492949         0.722731         0.533822
 H        -3.202665         2.606896        -0.568048
 H        -2.876809         2.622095         1.267996
 H        -1.134587         1.540615        -0.978504
 H        -0.651643         2.832298         0.063972
 H        -1.404737        -1.522330         0.459119
