19
Iteration:  1491
 O         0.600156         0.452805         0.580027
 C        -0.777888         0.615920         0.806746
 C        -1.351740         0.640000         2.209615
 C        -2.611026        -0.090551         1.688567
 C        -3.217250         0.746951         0.548711
 C        -2.615950         2.117909         0.308238
 C        -1.130401         1.842686        -0.041876
 O        -2.876500        -0.257274        -0.485740
 C        -1.864512        -0.604189         0.480612
 H         1.112858         0.307668         1.484694
 H        -0.817333        -0.128418         2.785074
 H        -1.335898         1.528149         2.704964
 H        -3.144576        -0.809849         2.269188
 H        -4.329306         0.833766         0.595971
 H        -3.157328         2.709131        -0.504785
 H        -2.817756         2.783390         1.143793
 H        -0.889494         1.665142        -1.109581
 H        -0.490153         2.646632         0.203792
 H        -1.265729        -1.569003         0.341060
