19
Iteration:  3710
 O         0.602265         0.381477         0.638582
 C        -0.742618         0.609261         0.802812
 C        -1.310037         0.599103         2.213489
 C        -2.568240        -0.027420         1.720451
 C        -3.337294         0.719488         0.536013
 C        -2.659903         2.008188         0.204362
 C        -1.105964         1.952369         0.069930
 O        -2.888794        -0.251386        -0.425583
 C        -1.767705        -0.529607         0.434352
 H         0.827264         0.539134        -0.227668
 H        -0.777759         0.017706         2.914316
 H        -1.281935         1.632289         2.564414
 H        -3.082091        -0.762526         2.423850
 H        -4.490295         0.767008         0.472242
 H        -3.134874         2.284844        -0.715700
 H        -3.201008         2.752235         0.858969
 H        -0.795331         1.814792        -0.988326
 H        -0.571523         2.774840         0.619912
 H        -1.383106        -1.561573         0.336641
