19
Iteration:  3207
 O         0.596839         0.246224         0.633614
 C        -0.762555         0.626896         0.771614
 C        -1.322995         0.656351         2.189973
 C        -2.542864        -0.111261         1.663599
 C        -3.296308         0.756838         0.641294
 C        -2.765761         2.121753         0.263678
 C        -1.206287         1.850306        -0.052210
 O        -2.769790        -0.163360        -0.475391
 C        -1.747575        -0.504069         0.445171
 H         1.085775         0.781853         1.177547
 H        -0.761152         0.039920         2.949203
 H        -1.448815         1.690999         2.666473
 H        -3.183275        -0.843229         2.237913
 H        -4.365680         0.732451         0.534709
 H        -3.204125         2.656099        -0.573295
 H        -3.137551         2.578916         1.223190
 H        -1.191390         1.438440        -1.057269
 H        -0.500226         2.625708         0.272511
 H        -1.168863        -1.472456         0.391730
