19
Iteration:  1148
 O         0.608421         0.328493         0.408299
 C        -0.784998         0.568260         0.811507
 C        -1.240628         0.642400         2.276374
 C        -2.586621         0.089113         1.668756
 C        -3.332418         0.760230         0.432633
 C        -2.758805         2.096604         0.143732
 C        -1.222625         1.866475         0.190288
 O        -2.712988        -0.319835        -0.394325
 C        -1.810351        -0.591360         0.596273
 H         1.104545         1.060808         0.648036
 H        -0.675318         0.009717         2.926543
 H        -1.144574         1.566073         2.780957
 H        -3.296633        -0.381840         2.414157
 H        -4.460764         0.679820         0.452746
 H        -3.084773         2.391727        -0.896458
 H        -3.121759         2.735261         0.810035
 H        -0.781485         1.929095        -0.765362
 H        -0.804615         2.716253         0.784112
 H        -1.597967        -1.716291         0.616816
