19
Iteration:  1500
 O         0.620462         0.394018         0.632390
 C        -0.758889         0.665854         0.756203
 C        -1.325442         0.622910         2.247006
 C        -2.571483        -0.145530         1.690236
 C        -3.348530         0.716497         0.526948
 C        -2.588160         2.113661         0.313175
 C        -1.136339         1.882501        -0.117706
 O        -2.869071        -0.199890        -0.449825
 C        -1.843315        -0.629050         0.427031
 H         0.964888         0.475235         1.619319
 H        -0.660863         0.113011         2.980600
 H        -1.606209         1.693906         2.773970
 H        -3.059764        -0.753902         2.409016
 H        -4.427217         0.867231         0.428582
 H        -3.147375         2.746364        -0.445791
 H        -2.486173         2.616549         1.276621
 H        -1.016927         1.572576        -1.152410
 H        -0.665791         2.794150         0.153946
 H        -1.429136        -1.637163         0.348461
