19
Iteration:  1047charge 0 multiplicity 1
 O         0.618279         0.303005         0.588181
 C        -0.726847         0.643383         0.746728
 C        -1.249201         0.706413         2.279831
 C        -2.587977         0.033685         1.719341
 C        -3.343470         0.720477         0.502305
 C        -2.743193         2.122489         0.278674
 C        -1.200246         1.885165        -0.017610
 O        -2.779875        -0.342540        -0.451637
 C        -1.803581        -0.575685         0.497352
 H         1.234791         1.040173         0.654685
 H        -0.763342        -0.157179         2.790942
 H        -1.419963         1.631122         2.859208
 H        -3.234187        -0.730490         2.385073
 H        -4.449465         0.641233         0.332981
 H        -3.213549         2.702220        -0.543033
 H        -2.906778         2.645124         1.107219
 H        -1.185570         1.574603        -1.106150
 H        -0.589537         2.764861         0.240086
 H        -1.406773        -1.597741         0.450791
