19
Iteration:   403charge 0 multiplicity 1
 O         0.685950         0.367033         0.573075
 C        -0.757767         0.577910         0.724681
 C        -1.277321         0.703697         2.267042
 C        -2.572033         0.015585         1.703742
 C        -3.317933         0.747328         0.503758
 C        -2.706225         2.070122         0.045435
 C        -1.246621         1.960178         0.183618
 O        -2.830369        -0.321204        -0.405411
 C        -1.784987        -0.592401         0.519172
 H         0.784847        -0.585599         0.363546
 H        -0.799682        -0.114906         2.901617
 H        -1.394539         1.764373         2.653033
 H        -3.284921        -0.514945         2.260430
 H        -4.385093         0.762427         0.731204
 H        -2.892008         2.335782        -0.969160
 H        -3.141890         2.830210         0.778345
 H        -0.787904         2.311514        -0.696190
 H        -0.857721         2.713571         0.979016
 H        -1.348352        -1.705919         0.381100
