19
Iteration:  3626charge 0 multiplicity 1
 O         0.655572         0.207530         0.567711
 C        -0.787750         0.702767         0.799108
 C        -1.344410         0.694608         2.274663
 C        -2.558013        -0.066134         1.694135
 C        -3.296888         0.691514         0.597797
 C        -2.729610         2.123119         0.229147
 C        -1.188641         1.914814        -0.008137
 O        -2.863288        -0.257401        -0.462086
 C        -1.771410        -0.563394         0.455253
 H         1.165289         0.923665         1.111330
 H        -0.609037         0.249361         2.965787
 H        -1.423618         1.800898         2.508928
 H        -3.217894        -0.799826         2.255520
 H        -4.327326         0.519914         0.778975
 H        -3.003164         2.520820        -0.782862
 H        -2.971217         2.669944         1.133987
 H        -0.916388         1.887642        -1.086925
 H        -0.500634         2.745502         0.193684
 H        -1.133675        -1.379578         0.162983
