19
Iteration:   203charge 0 multiplicity 1
 O         0.593137         0.379958         0.848968
 C        -0.782772         0.693825         0.765462
 C        -1.338857         0.645050         2.156591
 C        -2.500097        -0.109951         1.652869
 C        -3.273508         0.705473         0.651085
 C        -2.614258         2.074317         0.270761
 C        -1.267667         1.832978        -0.176683
 O        -2.850391        -0.184921        -0.460216
 C        -1.759017        -0.504952         0.449872
 H         0.935115        -0.357454         0.178131
 H        -0.505875         0.283468         2.724448
 H        -1.530422         1.560493         2.714074
 H        -3.122679        -0.844790         2.235572
 H        -4.413903         0.733310         0.635485
 H        -3.328769         2.537926        -0.521577
 H        -2.620587         2.765460         1.030068
 H        -1.418549         1.231880        -1.156231
 H        -0.489661         2.731534        -0.208457
 H        -1.330785        -1.477836         0.357023
