19
Iteration:   124charge 0 multiplicity 1
 O         0.550608         0.180341         0.402487
 C        -0.743152         0.627647         0.868139
 C        -1.276461         0.654464         2.378643
 C        -2.601239        -0.010651         1.726318
 C        -3.295595         0.758394         0.434568
 C        -2.771468         2.095841         0.080839
 C        -1.233887         2.008073         0.161244
 O        -2.714896        -0.301946        -0.428257
 C        -1.757312        -0.548390         0.610374
 H         1.159141         1.013586         0.159253
 H        -0.818249        -0.090752         2.931987
 H        -1.286817         1.640148         2.781616
 H        -3.260499        -0.703325         2.294824
 H        -4.429058         0.642442         0.385880
 H        -3.125295         2.490036        -0.948481
 H        -3.159507         2.762553         0.746873
 H        -0.621404         2.093929        -0.835879
 H        -0.741600         2.848409         0.713520
 H        -1.315244        -1.469670         0.497898
