19
Iteration:   348charge 0 multiplicity 1
 O         0.594217         0.414332         0.647531
 C        -0.750618         0.631901         0.777683
 C        -1.386195         0.667455         2.145977
 C        -2.594152        -0.072808         1.648586
 C        -3.330810         0.753880         0.546922
 C        -2.618941         2.171116         0.343460
 C        -1.224617         1.780120        -0.150389
 O        -2.818839        -0.282308        -0.419361
 C        -1.682676        -0.574662         0.497473
 H         1.110585         0.354087         1.548379
 H        -0.839669        -0.018410         2.910797
 H        -1.519027         1.679925         2.674128
 H        -3.137344        -0.729327         2.265816
 H        -4.426237         0.817676         0.557383
 H        -3.116790         2.836076        -0.350793
 H        -2.641940         2.705204         1.335373
 H        -1.397987         1.335541        -1.117386
 H        -0.386475         2.648876        -0.205047
 H        -1.371562        -1.706879         0.445121
