19
Iteration:  4055charge 0 multiplicity 1
 O         0.626480         0.312118         0.663698
 C        -0.767740         0.655219         0.769285
 C        -1.288819         0.715382         2.199273
 C        -2.572579        -0.077439         1.673847
 C        -3.287906         0.738602         0.508819
 C        -2.647192         2.125255         0.297062
 C        -1.179107         1.861161         0.050379
 O        -2.898543        -0.258366        -0.476181
 C        -1.802454        -0.634334         0.472096
 H         1.120938         0.995139         0.020665
 H        -0.822290        -0.018245         2.902457
 H        -1.358947         1.706956         2.553893
 H        -3.185687        -0.614339         2.385690
 H        -4.368965         0.756146         0.701483
 H        -3.054409         2.372768        -0.710994
 H        -2.917371         2.679366         1.186126
 H        -0.996426         1.823234        -1.089616
 H        -0.602001         2.772135         0.466287
 H        -1.291212        -1.627823         0.373989
