19
Iteration:  1656charge 0 multiplicity 1
 O         0.563756         0.255664         0.699556
 C        -0.748891         0.692586         0.767515
 C        -1.427710         0.724230         2.221978
 C        -2.508941        -0.125768         1.647791
 C        -3.277772         0.693394         0.598108
 C        -2.636584         2.104841         0.349346
 C        -1.183365         1.796844        -0.106680
 O        -2.870484        -0.207771        -0.446022
 C        -1.718822        -0.492967         0.369180
 H         1.147109         0.958435         0.940091
 H        -0.570554         0.294485         2.779256
 H        -1.758696         1.685454         2.650662
 H        -3.059646        -0.943334         2.154006
 H        -4.390774         0.724432         0.751332
 H        -3.276083         2.811397        -0.195529
 H        -2.666420         2.645862         1.287176
 H        -1.046521         1.567263        -1.184193
 H        -0.515624         2.626831        -0.120904
 H        -1.309805        -1.543458         0.152122
