19
Iteration:   340charge 0 multiplicity 1
 O         0.636284         0.384058         0.707146
 C        -0.772211         0.591455         0.712461
 C        -1.363352         0.768065         2.134074
 C        -2.541314        -0.058917         1.636777
 C        -3.380010         0.696327         0.581965
 C        -2.592023         2.173610         0.372774
 C        -1.240090         1.802491        -0.109425
 O        -2.833419        -0.294220        -0.488282
 C        -1.769520        -0.624036         0.485624
 H         1.006862         0.481374         1.658046
 H        -0.901231         0.185349         2.977600
 H        -1.318817         1.816750         2.501840
 H        -3.083110        -0.687755         2.366821
 H        -4.417900         0.627718         0.651166
 H        -2.988434         2.872859        -0.303540
 H        -2.586111         2.743565         1.366441
 H        -1.475811         1.476637        -1.156608
 H        -0.393688         2.697020        -0.147537
 H        -1.164290        -1.525680         0.243210
