19
Iteration:  3914charge 0 multiplicity 1
 O         0.648724         0.212744         0.586067
 C        -0.730655         0.620540         0.774321
 C        -1.362501         0.649520         2.232558
 C        -2.613146         0.020691         1.756906
 C        -3.337066         0.700651         0.532570
 C        -2.799410         2.122385         0.270268
 C        -1.257760         1.858944        -0.039976
 O        -2.734102        -0.148444        -0.500311
 C        -1.683285        -0.591114         0.543305
 H         1.220324         1.001349         0.568008
 H        -0.641911        -0.059048         2.776689
 H        -1.425421         1.647913         2.747567
 H        -3.231507        -0.576330         2.378425
 H        -4.392583         0.563794         0.635459
 H        -2.957550         2.777518        -0.641387
 H        -2.864491         2.586760         1.249051
 H        -1.158350         1.624151        -1.132319
 H        -0.670340         2.825587         0.163029
 H        -1.481526        -1.687197         0.478795
