19
Iteration:  4645charge 0 multiplicity 1
 O         0.619649         0.334484         0.739133
 C        -0.721953         0.660546         0.793361
 C        -1.274783         0.629889         2.242588
 C        -2.624086        -0.010655         1.672729
 C        -3.339271         0.739213         0.531703
 C        -2.728587         1.999975         0.309762
 C        -1.204729         1.787538        -0.045569
 O        -2.752077        -0.114094        -0.493188
 C        -1.798695        -0.551576         0.475017
 H         0.872633         0.385778        -0.249345
 H        -0.617893        -0.217285         2.645539
 H        -1.348824         1.502335         2.908920
 H        -3.212538        -0.814771         2.228173
 H        -4.463442         0.819030         0.428948
 H        -3.153157         2.594073        -0.540190
 H        -2.802710         2.780450         1.176376
 H        -1.190454         1.453473        -1.157698
 H        -0.637983         2.766252         0.035453
 H        -1.395093        -1.532918         0.281173
