19
Iteration:  2149
 O         0.530071         0.334503         0.352691
 C        -0.696723         0.575830         0.814593
 C        -1.283457         0.702357         2.400414
 C        -2.600176        -0.033601         1.776557
 C        -3.424671         0.730270         0.502738
 C        -2.705666         2.101672         0.160599
 C        -1.162428         1.836960         0.027928
 O        -2.699408        -0.230465        -0.403750
 C        -1.763403        -0.615533         0.564829
 H         1.168585         0.990414         0.611531
 H        -0.774419         0.017226         3.033698
 H        -1.680600         1.679841         2.764499
 H        -3.146563        -0.716530         2.313127
 H        -4.479547         0.628026         0.477793
 H        -3.162234         2.514377        -0.847434
 H        -3.099831         2.959604         0.799308
 H        -0.803468         1.935067        -0.946992
 H        -0.689764         2.650416         0.656237
 H        -1.358025        -1.587825         0.415714
