19
Iteration:   920charge 0 multiplicity 1
 O         0.626764         0.447041         0.614162
 C        -0.712914         0.597469         0.814309
 C        -1.388333         0.664072         2.206669
 C        -2.627795        -0.135327         1.713420
 C        -3.323459         0.716160         0.576265
 C        -2.634791         2.182407         0.297155
 C        -1.260880         1.666091        -0.115722
 O        -2.784741        -0.163826        -0.479377
 C        -1.755107        -0.589458         0.545913
 H         1.312731         1.239781         0.708059
 H        -0.874497        -0.038865         2.862760
 H        -1.351903         1.655370         2.733769
 H        -3.135948        -0.797871         2.213667
 H        -4.416838         0.768051         0.640733
 H        -3.106004         2.731094        -0.492527
 H        -2.603875         2.886326         1.227941
 H        -1.332456         1.397027        -1.118612
 H        -0.418336         2.413335        -0.318130
 H        -1.483612        -1.685779         0.368043
