19
Iteration:    46charge 0 multiplicity 1
 O         0.680744         0.556543         0.749551
 C        -0.739138         0.658595         0.749305
 C        -1.276999         0.657172         2.205731
 C        -2.625471        -0.036725         1.740152
 C        -3.376868         0.735639         0.555913
 C        -2.582450         1.972652         0.321186
 C        -1.187357         1.750205        -0.224393
 O        -2.911700        -0.209565        -0.470636
 C        -1.818317        -0.585987         0.459536
 H         0.881271        -0.314886         1.044937
 H        -0.659174         0.001772         2.774396
 H        -1.306836         1.574080         2.759269
 H        -3.249190        -0.646050         2.388673
 H        -4.482293         0.789402         0.534736
 H        -3.068548         2.666527        -0.403828
 H        -2.459675         2.491308         1.221177
 H        -1.017735         1.316899        -1.254080
 H        -0.577360         2.642533        -0.056412
 H        -1.464797        -1.562690         0.276606
