19
Iteration:  4074
 O         0.740320         0.369515         0.748352
 C        -0.779790         0.557506         0.715766
 C        -1.216349         0.573306         2.220282
 C        -2.560178        -0.020581         1.671897
 C        -3.369005         0.759832         0.623927
 C        -2.726997         2.095797         0.180726
 C        -1.182751         1.926895        -0.038444
 O        -2.879646        -0.247586        -0.453069
 C        -1.866788        -0.590729         0.447052
 H         1.119870         1.219505         0.309739
 H        -0.663425        -0.221146         2.773318
 H        -1.421583         1.525841         2.745588
 H        -3.213864        -0.566304         2.349602
 H        -4.493654         0.702148         0.496829
 H        -3.287233         2.612390        -0.585532
 H        -2.811747         2.792226         1.096865
 H        -0.795355         1.664113        -1.009213
 H        -0.528126         2.643147         0.316447
 H        -1.628598        -1.633801         0.367851
