19
Iteration:  1046charge 0 multiplicity 1
 O         0.612985         0.307318         0.580947
 C        -0.719275         0.644250         0.742041
 C        -1.244716         0.704138         2.291218
 C        -2.589734         0.029871         1.722391
 C        -3.340562         0.726837         0.497485
 C        -2.743864         2.123741         0.266950
 C        -1.195841         1.887667        -0.012127
 O        -2.777921        -0.347276        -0.451364
 C        -1.811996        -0.583434         0.504676
 H         1.266686         1.078084         0.646047
 H        -0.798993        -0.187253         2.776778
 H        -1.440296         1.634701         2.865437
 H        -3.238377        -0.715112         2.393670
 H        -4.428371         0.644717         0.364543
 H        -3.199735         2.696047        -0.542009
 H        -2.950334         2.633746         1.118828
 H        -1.178255         1.589484        -1.121244
 H        -0.581707         2.759992         0.274314
 H        -1.433556        -1.579737         0.434282
