19
Iteration:   399charge 0 multiplicity 1
 O         0.680096         0.395639         0.569638
 C        -0.768103         0.573309         0.744069
 C        -1.262249         0.687098         2.259314
 C        -2.567037         0.018703         1.665513
 C        -3.301833         0.767452         0.499192
 C        -2.732811         2.070121         0.073821
 C        -1.239376         1.907190         0.201318
 O        -2.811576        -0.290864        -0.385378
 C        -1.799205        -0.586622         0.532812
 H         0.819511        -0.618017         0.439868
 H        -0.827328        -0.068412         2.822359
 H        -1.317956         1.686104         2.596840
 H        -3.344796        -0.591934         2.225186
 H        -4.444086         0.733936         0.667454
 H        -2.953433         2.251532        -1.070169
 H        -3.128578         2.846454         0.685404
 H        -0.797603         2.105603        -0.812600
 H        -0.860864         2.578614         0.834392
 H        -1.365450        -1.524815         0.390066
