19
Iteration:  4935
 O         0.582652         0.373136         0.801603
 C        -0.840658         0.621364         0.809686
 C        -1.256907         0.597656         2.229687
 C        -2.483399        -0.134193         1.692656
 C        -3.240287         0.744548         0.590711
 C        -2.613936         2.096766         0.182968
 C        -1.203372         1.841322        -0.000982
 O        -2.914534        -0.171456        -0.489725
 C        -1.822600        -0.550173         0.389484
 H         1.070094         0.681394        -0.083166
 H        -0.611965         0.049670         2.916481
 H        -1.505420         1.596767         2.642821
 H        -3.015983        -0.923412         2.371856
 H        -4.349038         0.911231         0.508960
 H        -3.203458         2.432539        -0.720551
 H        -2.974366         2.840539         0.955768
 H        -1.052725         1.738536        -1.077856
 H        -0.640793         2.680384         0.240798
 H        -1.251750        -1.525697        -0.026942
