19
Iteration:  1435
 O         0.558470         0.245837         0.562425
 C        -0.755872         0.679160         0.809557
 C        -1.307418         0.637074         2.247198
 C        -2.547746         0.030267         1.702738
 C        -3.326279         0.738810         0.568208
 C        -2.730711         2.085327         0.200880
 C        -1.220024         1.967053         0.132979
 O        -2.713097        -0.240984        -0.483471
 C        -1.771267        -0.562435         0.484822
 H         0.656653        -0.390182        -0.124298
 H        -0.904261        -0.075376         2.941849
 H        -1.359953         1.512276         2.689644
 H        -3.100747        -0.640785         2.314950
 H        -4.407630         0.569057         0.472952
 H        -2.963615         2.174213        -0.912136
 H        -3.103527         2.889950         0.846059
 H        -0.836070         2.036374        -0.884664
 H        -0.834611         2.773187         0.723789
 H        -1.134016        -1.508050         0.352433
