19
Iteration:  4553charge 0 multiplicity 1
 O         0.644528         0.408256         0.659639
 C        -0.765420         0.573031         0.850837
 C        -1.278573         0.502433         2.326158
 C        -2.577469        -0.007962         1.714414
 C        -3.324212         0.793432         0.566707
 C        -2.741358         2.104335         0.100166
 C        -1.167694         1.851675         0.045534
 O        -2.851844        -0.155334        -0.491289
 C        -1.741463        -0.619089         0.449961
 H         1.000468         0.767763        -0.099705
 H        -0.741504        -0.372672         2.819502
 H        -1.309336         1.507284         2.932705
 H        -3.283777        -0.696112         2.191831
 H        -4.402821         0.692654         0.703550
 H        -3.252886         2.430728        -0.867832
 H        -2.996397         2.881429         0.873414
 H        -1.009354         1.526058        -0.957200
 H        -0.627526         2.787958         0.243039
 H        -1.280514        -1.624964         0.265709
