19
Iteration:  1196charge 0 multiplicity 1
 O         0.590506         0.193580         0.670174
 C        -0.713648         0.666788         0.769743
 C        -1.345690         0.732705         2.216838
 C        -2.546381        -0.058886         1.697187
 C        -3.347843         0.688076         0.578403
 C        -2.724613         2.104837         0.246141
 C        -1.212964         1.884851        -0.042262
 O        -2.868777        -0.221058        -0.462892
 C        -1.646742        -0.523350         0.474105
 H         1.251098         0.925193         0.335553
 H        -0.871010         0.176328         3.073165
 H        -1.498738         1.719835         2.778973
 H        -2.922064        -0.843450         2.251015
 H        -4.453408         0.688588         0.548293
 H        -3.273317         2.501591        -0.574155
 H        -2.767579         2.685102         1.176368
 H        -1.074852         1.603013        -1.119464
 H        -0.719256         2.837229         0.117062
 H        -1.143041        -1.483461         0.254159
