19
Iteration:  1515
 O         0.678846         0.270513         0.740181
 C        -0.716292         0.621365         0.728656
 C        -1.366398         0.714751         2.192295
 C        -2.507980        -0.116872         1.692369
 C        -3.354627         0.763744         0.581293
 C        -2.708824         2.076402         0.348609
 C        -1.221761         1.819343        -0.138531
 O        -2.862817        -0.172051        -0.492507
 C        -1.749581        -0.505956         0.410249
 H         1.068778         0.552790         1.529586
 H        -0.737801         0.091744         2.829933
 H        -1.542897         1.563496         2.617165
 H        -3.215836        -0.802190         2.211734
 H        -4.454957         0.700807         0.778428
 H        -3.233554         2.818029        -0.278004
 H        -2.789063         2.642657         1.287812
 H        -1.253872         1.576723        -1.223605
 H        -0.481308         2.614507        -0.049726
 H        -1.284872        -1.491016        -0.011424
