19
Iteration:  1777
 O         0.716434         0.256261         0.672066
 C        -0.699412         0.584857         0.790383
 C        -1.315665         0.671561         2.222325
 C        -2.592168        -0.016843         1.709321
 C        -3.374050         0.728372         0.530435
 C        -2.761143         2.041391         0.299821
 C        -1.217815         1.894007         0.022496
 O        -2.881853        -0.187371        -0.538632
 C        -1.695752        -0.555615         0.445799
 H         1.242301         1.036699         0.241378
 H        -0.857410        -0.069245         2.888034
 H        -1.398368         1.609799         2.672463
 H        -3.175778        -0.710466         2.374217
 H        -4.484558         0.843186         0.471990
 H        -3.283410         2.617842        -0.541738
 H        -2.898123         2.675150         1.214004
 H        -0.907618         1.825545        -1.115941
 H        -0.677301         2.860144         0.501583
 H        -1.415639        -1.653239         0.348836
