19
Iteration:  4484charge 0 multiplicity 1
 O         0.606118         0.239015         0.756735
 C        -0.729875         0.690780         0.765626
 C        -1.237943         0.680619         2.184575
 C        -2.545277        -0.083809         1.700726
 C        -3.367832         0.666211         0.547882
 C        -2.800185         2.101098         0.270819
 C        -1.200690         1.873350        -0.009308
 O        -2.763756        -0.130370        -0.504825
 C        -1.748554        -0.499797         0.460513
 H         0.873189        -0.183220        -0.178594
 H        -0.687831        -0.069913         2.853403
 H        -1.267158         1.691655         2.796820
 H        -3.292176        -0.674798         2.318050
 H        -4.464417         0.705519         0.517537
 H        -3.432573         2.405554        -0.605623
 H        -3.011832         2.676960         1.164570
 H        -1.074141         1.705059        -1.130344
 H        -0.604976         2.759599         0.222518
 H        -1.323152        -1.573951         0.404502
