19
Iteration:  1495charge 0 multiplicity 1
 O         0.608641         0.429371         0.607625
 C        -0.769857         0.639305         0.790798
 C        -1.335910         0.629277         2.228301
 C        -2.598921        -0.115542         1.679723
 C        -3.264008         0.721036         0.534447
 C        -2.605839         2.120645         0.308599
 C        -1.129061         1.854260        -0.088768
 O        -2.875503        -0.227465        -0.463689
 C        -1.872062        -0.623245         0.451097
 H         0.993146         0.395865         1.460996
 H        -0.728873        -0.015623         2.886689
 H        -1.479835         1.644507         2.747924
 H        -3.070753        -0.869397         2.413934
 H        -4.354442         0.876974         0.487835
 H        -3.097488         2.718347        -0.417180
 H        -2.670253         2.760306         1.239622
 H        -0.920069         1.607003        -1.156526
 H        -0.571836         2.833212         0.221784
 H        -1.302707        -1.573508         0.389872
