19
Iteration:   521charge 0 multiplicity 1
 O         0.613403         0.369209         0.731720
 C        -0.731067         0.711998         0.822660
 C        -1.363736         0.642278         2.205573
 C        -2.545556        -0.116593         1.724949
 C        -3.255722         0.745655         0.545617
 C        -2.625886         2.090674         0.178070
 C        -1.110272         1.915355        -0.096334
 O        -2.919548        -0.319535        -0.405706
 C        -1.858592        -0.574802         0.484860
 H         0.963309         0.579655        -0.062932
 H        -0.687534         0.008016         2.843620
 H        -1.532757         1.576640         2.781342
 H        -3.160861        -0.726399         2.383858
 H        -4.410141         0.791967         0.605778
 H        -3.122291         2.393384        -0.789822
 H        -3.028601         2.851289         0.937387
 H        -0.931461         1.777440        -1.268420
 H        -0.461811         2.732011         0.212175
 H        -1.218212        -1.439972         0.204152
