19
Iteration:  2552
 O         0.695745         0.398866         0.709196
 C        -0.724151         0.612407         0.728424
 C        -1.275110         0.724141         2.241536
 C        -2.517409        -0.071577         1.686821
 C        -3.372858         0.724964         0.590673
 C        -2.693546         2.066096         0.255562
 C        -1.197035         1.841378        -0.007624
 O        -2.882109        -0.210930        -0.448142
 C        -1.822121        -0.595445         0.479693
 H         0.936854         0.041494        -0.185919
 H        -0.572527         0.121339         2.810344
 H        -1.478451         1.812441         2.476930
 H        -2.978915        -0.928969         2.234618
 H        -4.507698         0.670959         0.541486
 H        -3.329799         2.403300        -0.620329
 H        -3.053139         2.772549         1.040817
 H        -0.993979         1.728880        -1.065041
 H        -0.676988         2.671343         0.223630
 H        -1.509625        -1.602240         0.114669
