19
Iteration:  4475
 O         0.590584         0.298566         0.727917
 C        -0.759936         0.614660         0.801663
 C        -1.262020         0.641854         2.233546
 C        -2.567849        -0.080364         1.723609
 C        -3.308223         0.698780         0.569399
 C        -2.791573         2.084155         0.255884
 C        -1.156084         1.898769        -0.092883
 O        -2.741034        -0.126868        -0.456088
 C        -1.789757        -0.521501         0.454817
 H         0.659809        -0.096638        -0.250546
 H        -0.703134        -0.170080         2.758632
 H        -1.414504         1.648091         2.769691
 H        -3.257668        -0.748312         2.302636
 H        -4.371772         0.512068         0.592604
 H        -3.367320         2.410467        -0.696990
 H        -3.040176         2.897922         0.924926
 H        -0.975537         1.865408        -1.154582
 H        -0.646134         2.677201         0.392426
 H        -1.222129        -1.457066         0.107509
