19
Iteration:  3283
 O         0.599728         0.145778         0.571665
 C        -0.770352         0.662964         0.781321
 C        -1.270036         0.712414         2.269012
 C        -2.562197        -0.054793         1.680886
 C        -3.295141         0.694583         0.553126
 C        -2.781731         2.055192         0.238144
 C        -1.229168         1.903497         0.066022
 O        -2.730697        -0.180166        -0.457428
 C        -1.783271        -0.482972         0.470250
 H         1.199616         1.008719         0.548687
 H        -0.650685        -0.094610         2.757063
 H        -1.575622         1.733029         2.703407
 H        -3.133725        -0.841394         2.197890
 H        -4.393796         0.724326         0.467368
 H        -3.111712         2.535805        -0.686107
 H        -3.023932         2.885552         1.025850
 H        -0.929015         1.816239        -0.972744
 H        -0.923029         2.739024         0.630294
 H        -1.433186        -1.537750         0.232884
