19
Iteration:  1765charge 0 multiplicity 1
 O         0.645570         0.217630         0.620508
 C        -0.716691         0.676268         0.785050
 C        -1.311460         0.682768         2.213469
 C        -2.533055        -0.052161         1.630082
 C        -3.330045         0.653658         0.531218
 C        -2.704302         2.065272         0.230160
 C        -1.156301         1.964513         0.153117
 O        -2.875501        -0.226729        -0.518242
 C        -1.846798        -0.546902         0.491335
 H         1.116656         0.935530         0.349934
 H        -0.669502         0.130396         2.961466
 H        -1.447110         1.682311         2.641063
 H        -3.107315        -0.723119         2.312773
 H        -4.419694         0.569395         0.750109
 H        -3.211304         2.468998        -0.756888
 H        -2.975478         2.716262         1.090145
 H        -0.857059         1.944064        -1.011395
 H        -0.665732         2.949985         0.675614
 H        -1.278794        -1.540657         0.371711
