19
Iteration:   301
 O         0.659264         0.243569         0.584689
 C        -0.751977         0.638300         0.776139
 C        -1.283211         0.702370         2.239479
 C        -2.569804        -0.033546         1.700710
 C        -3.380991         0.713675         0.614659
 C        -2.751096         2.106257         0.145072
 C        -1.216331         1.894561         0.008919
 O        -2.801410        -0.248412        -0.430322
 C        -1.738100        -0.524430         0.467019
 H         1.009853         0.614661         1.452743
 H        -0.786571        -0.024025         2.888041
 H        -1.363410         1.644454         2.806020
 H        -3.117296        -0.744766         2.369068
 H        -4.548975         0.604781         0.698618
 H        -3.166750         2.250855        -0.964642
 H        -3.008787         3.020676         0.610426
 H        -0.903618         1.696474        -1.036815
 H        -0.722778         2.809192         0.350359
 H        -1.193925        -1.447433         0.366002
