19
Iteration:  4982charge 0 multiplicity 1
 O         0.652672         0.294562         0.608742
 C        -0.736317         0.613637         0.833228
 C        -1.247248         0.650016         2.229917
 C        -2.616345         0.032194         1.724037
 C        -3.402571         0.718903         0.376089
 C        -2.773112         2.107256         0.325209
 C        -1.216673         1.851443         0.159075
 O        -2.731337        -0.230316        -0.537266
 C        -1.768811        -0.569438         0.504834
 H         0.841816         0.236641        -0.312638
 H        -0.675439        -0.081598         2.849691
 H        -1.149181         1.572140         2.728692
 H        -3.421429        -0.474742         2.208425
 H        -4.500318         0.705456         0.379282
 H        -3.107275         2.810519        -0.429572
 H        -2.924772         2.704626         1.224151
 H        -1.024704         1.693574        -0.945252
 H        -0.696197         2.858157         0.351448
 H        -1.323461        -1.586289         0.413442
