19
Iteration:    30
 O         0.651536         0.562306         0.706344
 C        -0.752320         0.606564         0.781478
 C        -1.420076         0.714381         2.248677
 C        -2.521968        -0.135727         1.681461
 C        -3.312814         0.708973         0.607706
 C        -2.587751         2.173208         0.296796
 C        -1.189130         1.652731        -0.231042
 O        -2.823055        -0.167505        -0.462123
 C        -1.854567        -0.611524         0.481542
 H         0.985510        -0.270546         0.792316
 H        -0.809889        -0.061835         2.861492
 H        -1.726177         1.692834         2.740851
 H        -3.047961        -0.860889         2.336711
 H        -4.401112         0.745112         0.673606
 H        -3.203362         2.867925        -0.280041
 H        -2.422044         2.711870         1.311560
 H        -1.381899         1.240890        -1.197073
 H        -0.424735         2.400703        -0.458190
 H        -1.534527        -1.754520         0.349657
