19
Iteration:  3535charge 0 multiplicity 1
 O         0.615016         0.258199         0.623439
 C        -0.787631         0.626198         0.748546
 C        -1.349546         0.704646         2.235793
 C        -2.545661        -0.003393         1.694404
 C        -3.370997         0.680486         0.550549
 C        -2.681142         2.122316         0.369008
 C        -1.241733         1.865058        -0.060925
 O        -2.721817        -0.236395        -0.481127
 C        -1.785236        -0.582316         0.431260
 H         1.363837         0.963989         0.402469
 H        -0.885269         0.041500         2.937759
 H        -1.492284         1.684736         2.709701
 H        -3.169590        -0.583781         2.433122
 H        -4.447458         0.643101         0.751303
 H        -3.033688         2.636767        -0.478352
 H        -2.640257         2.694651         1.304797
 H        -1.128288         1.703433        -1.137509
 H        -0.700170         2.828334         0.219464
 H        -1.390831        -1.607592         0.390121
