19
Iteration:    45charge 0 multiplicity 1
 O         0.677955         0.563362         0.748507
 C        -0.739839         0.661283         0.749043
 C        -1.287771         0.657923         2.207830
 C        -2.619859        -0.039827         1.740500
 C        -3.382127         0.725829         0.554493
 C        -2.576598         1.981976         0.316697
 C        -1.183906         1.744595        -0.235330
 O        -2.908860        -0.200166        -0.470222
 C        -1.822435        -0.586469         0.460911
 H         0.883503        -0.365634         1.039015
 H        -0.628693         0.022293         2.800430
 H        -1.310081         1.570992         2.789258
 H        -3.223831        -0.662633         2.388994
 H        -4.479715         0.773858         0.538201
 H        -3.042060         2.644318        -0.355561
 H        -2.432858         2.487391         1.245494
 H        -1.039874         1.309662        -1.210883
 H        -0.584541         2.615755        -0.063104
 H        -1.476292        -1.620180         0.281957
