19
Iteration:  3349charge 0 multiplicity 1
 O         0.694359         0.368106         0.642392
 C        -0.723051         0.523101         0.792507
 C        -1.268566         0.641719         2.193356
 C        -2.592100         0.017165         1.691639
 C        -3.350737         0.721973         0.528974
 C        -2.726973         2.144709         0.280750
 C        -1.201096         1.840946        -0.000459
 O        -2.800209        -0.233064        -0.482414
 C        -1.870632        -0.570940         0.402774
 H         1.215470         1.082481         0.994861
 H        -0.750415        -0.167077         2.837278
 H        -1.226087         1.578466         2.885260
 H        -3.296407        -0.519388         2.387851
 H        -4.443776         0.573667         0.663486
 H        -3.317114         2.528490        -0.561077
 H        -2.894334         2.651870         1.279817
 H        -1.200796         1.644460        -1.084495
 H        -0.519295         2.587247         0.368109
 H        -1.449411        -1.628626         0.423875
