19
Iteration:   786charge 0 multiplicity 1
 O         0.717372         0.430478         0.807796
 C        -0.729115         0.591110         0.745503
 C        -1.305622         0.722163         2.118329
 C        -2.558761        -0.065678         1.706770
 C        -3.335497         0.718751         0.590919
 C        -2.606455         2.070392         0.328158
 C        -1.207244         1.744775        -0.134605
 O        -2.910436        -0.214766        -0.475321
 C        -1.860619        -0.629366         0.452865
 H         1.098491         1.248921         0.301041
 H        -0.798290         0.159558         2.941626
 H        -1.553158         1.746627         2.430891
 H        -3.085937        -0.644661         2.386866
 H        -4.504202         0.700290         0.595947
 H        -3.237408         2.597690        -0.458880
 H        -2.667449         2.789567         1.175461
 H        -1.185793         1.349762        -1.210323
 H        -0.610882         2.783512         0.047219
 H        -1.500374        -1.695824         0.219404
