19
Iteration:  2979charge 0 multiplicity 1
 O         0.561436         0.234669         0.593310
 C        -0.739990         0.667506         0.773155
 C        -1.376755         0.703323         2.238007
 C        -2.532021        -0.138132         1.652867
 C        -3.282464         0.763125         0.559328
 C        -2.661716         2.050169         0.228327
 C        -1.177345         1.961817         0.018834
 O        -2.866454        -0.251243        -0.381598
 C        -1.717873        -0.552681         0.420925
 H         1.182495         1.071627         0.542900
 H        -0.907024         0.177486         3.085696
 H        -1.730366         1.739236         2.479027
 H        -3.057602        -0.848124         2.429279
 H        -4.363145         0.778326         0.698227
 H        -3.147079         2.533485        -0.636241
 H        -2.854926         2.717536         1.092519
 H        -0.877613         1.689927        -1.014879
 H        -0.611336         2.831601         0.309141
 H        -1.273433        -1.578844         0.365439
