19
Iteration:  2246
 O         0.674233         0.480654         0.630852
 C        -0.728545         0.606605         0.823674
 C        -1.285390         0.692423         2.206469
 C        -2.635791        -0.150182         1.707135
 C        -3.367734         0.777362         0.533710
 C        -2.640814         2.050643         0.338383
 C        -1.277722         1.659487        -0.031803
 O        -2.748168        -0.147012        -0.435838
 C        -1.822399        -0.584486         0.473216
 H         0.818814         0.628529        -0.400813
 H        -0.770149         0.207107         2.991660
 H        -1.468813         1.744733         2.368506
 H        -3.141219        -0.685895         2.422536
 H        -4.454868         0.824981         0.485195
 H        -3.253567         2.714063        -0.448913
 H        -2.576728         2.664634         1.294177
 H        -1.351883         1.241595        -1.102199
 H        -0.553784         2.558530        -0.078208
 H        -1.335784        -1.539650         0.185514
