19
Iteration:  4868
 O         0.573576         0.382750         0.594179
 C        -0.822718         0.581196         0.797190
 C        -1.388105         0.691473         2.159000
 C        -2.613636        -0.046438         1.668983
 C        -3.295013         0.767491         0.511504
 C        -2.634201         2.119148         0.358707
 C        -1.179350         1.866728         0.108556
 O        -2.709480        -0.254184        -0.541132
 C        -1.772707        -0.627138         0.527945
 H         0.417251         0.271022        -0.319262
 H        -0.940860         0.063048         2.900784
 H        -1.329008         1.710875         2.632307
 H        -3.098310        -0.648293         2.503034
 H        -4.407103         0.661160         0.496583
 H        -3.135382         2.592974        -0.526940
 H        -2.668602         2.788991         1.249303
 H        -0.825138         1.685711        -0.879803
 H        -0.545015         2.598556         0.450647
 H        -1.199727        -1.692256         0.497881
