19
Iteration:   274charge 0 multiplicity 1
 O         0.485135         0.291408         0.408156
 C        -0.766484         0.665814         0.871527
 C        -1.273433         0.597606         2.343598
 C        -2.585970         0.017090         1.718577
 C        -3.266020         0.691759         0.457740
 C        -2.661221         2.032258         0.008156
 C        -1.164203         2.001802         0.109818
 O        -2.778841        -0.276276        -0.400919
 C        -1.786987        -0.586984         0.598299
 H         1.067078         1.074932         0.669746
 H        -0.877909        -0.116258         3.101738
 H        -1.334336         1.479557         3.012901
 H        -3.267822        -0.550118         2.341902
 H        -4.288879         0.686703         0.635930
 H        -3.024167         2.410529        -0.894172
 H        -3.057491         2.859669         0.750978
 H        -0.657815         1.827104        -0.816369
 H        -0.901172         2.978820         0.577585
 H        -1.284581        -1.615590         0.639454
