19
Iteration:   817
 O         0.650950         0.308988         0.568879
 C        -0.787800         0.610836         0.820277
 C        -1.269553         0.599404         2.272184
 C        -2.614863         0.053568         1.737003
 C        -3.318093         0.704082         0.463869
 C        -2.716888         2.153578         0.249920
 C        -1.269076         1.820850        -0.056759
 O        -2.738088        -0.280330        -0.461068
 C        -1.766422        -0.508953         0.575280
 H         1.059402         1.135387         0.556681
 H        -0.904084        -0.237829         2.893285
 H        -1.199872         1.525406         2.794834
 H        -3.265123        -0.564750         2.413147
 H        -4.464767         0.701256         0.364839
 H        -3.262649         2.602254        -0.762439
 H        -2.841824         2.772535         1.174878
 H        -1.211464         1.391464        -1.115256
 H        -0.757596         2.790807         0.085886
 H        -1.217527        -1.462941         0.564823
