19
Iteration:  1275charge 0 multiplicity 1
 O         0.554576         0.228793         0.513587
 C        -0.753636         0.658252         0.862259
 C        -1.250640         0.643999         2.307146
 C        -2.585887        -0.097932         1.700124
 C        -3.340651         0.705980         0.488843
 C        -2.772291         2.120844         0.200013
 C        -1.126119         1.905869         0.046404
 O        -2.774997        -0.201127        -0.464388
 C        -1.747232        -0.513421         0.547537
 H         1.119110         1.046945         0.381564
 H        -0.710469        -0.157156         2.856494
 H        -1.546961         1.670579         2.734792
 H        -3.342511        -0.663389         2.251867
 H        -4.403750         0.507932         0.523992
 H        -3.144632         2.459451        -0.735922
 H        -3.176198         2.823199         1.021556
 H        -0.891645         1.740253        -1.062197
 H        -0.599477         2.785621         0.421024
 H        -1.234252        -1.427608         0.428859
