19
Iteration:  4255
 O         0.636852         0.234480         0.641790
 C        -0.749105         0.673351         0.735874
 C        -1.312999         0.669701         2.183311
 C        -2.590260         0.014298         1.684600
 C        -3.374884         0.680529         0.505801
 C        -2.714614         2.051477         0.360773
 C        -1.221624         1.889923        -0.049070
 O        -2.770764        -0.200611        -0.456215
 C        -1.745877        -0.574591         0.502440
 H         1.183761         0.911145         0.340874
 H        -0.736463         0.054428         2.869012
 H        -1.291990         1.681756         2.669437
 H        -3.146228        -0.603061         2.452872
 H        -4.417987         0.644035         0.255569
 H        -3.376906         2.723255        -0.306273
 H        -2.868940         2.548601         1.355682
 H        -1.016046         1.818987        -1.123327
 H        -0.650314         2.816961         0.385085
 H        -1.399141        -1.683504         0.482323
