19
Iteration:    11
 O         0.640136         0.466148         0.617630
 C        -0.765916         0.590712         0.788309
 C        -1.376833         0.644127         2.252796
 C        -2.612940        -0.061973         1.683491
 C        -3.271699         0.804852         0.585155
 C        -2.641732         2.133078         0.287002
 C        -1.255987         1.753479        -0.083044
 O        -2.790463        -0.240450        -0.442604
 C        -1.719381        -0.618571         0.471237
 H         0.838041        -0.341261         0.966871
 H        -0.665386         0.214765         3.015412
 H        -1.524092         1.717701         2.384075
 H        -3.363948        -0.578821         2.278678
 H        -4.347138         0.911449         0.576209
 H        -3.183066         2.452913        -0.524992
 H        -2.773344         2.922296         1.064194
 H        -1.334452         1.477351        -1.096317
 H        -0.655860         2.635146        -0.063059
 H        -1.223472        -1.649434         0.218177
