19
Iteration:  3005
 O         0.594712         0.322540         0.518383
 C        -0.785847         0.616731         0.780916
 C        -1.200905         0.618721         2.296598
 C        -2.637686        -0.019441         1.710567
 C        -3.352058         0.771110         0.511160
 C        -2.721260         2.071084         0.178487
 C        -1.184637         1.939687         0.077376
 O        -2.779498        -0.295455        -0.472238
 C        -1.798478        -0.564490         0.494820
 H         1.129209         1.128013         0.909570
 H        -0.830649        -0.324970         2.966539
 H        -1.044221         1.578730         2.954448
 H        -3.172352        -0.535232         2.512436
 H        -4.495948         0.704699         0.552926
 H        -3.169328         2.376074        -0.826417
 H        -2.966113         2.823602         0.921382
 H        -0.720207         1.776609        -0.916703
 H        -0.515043         2.757513         0.400791
 H        -1.467575        -1.606896         0.615768
