19
Iteration:  2810charge 0 multiplicity 1
 O         0.665768         0.409018         0.511290
 C        -0.767234         0.585632         0.735983
 C        -1.397831         0.671783         2.248779
 C        -2.588712        -0.072983         1.732723
 C        -3.317790         0.715480         0.566085
 C        -2.638797         2.175667         0.366261
 C        -1.221533         1.735250        -0.069539
 O        -2.795907        -0.211526        -0.488573
 C        -1.759972        -0.630102         0.524209
 H         1.036975         1.226234         1.084794
 H        -0.923289        -0.095650         2.988310
 H        -1.639475         1.752880         2.600176
 H        -3.257455        -0.793322         2.301953
 H        -4.425164         0.780454         0.580216
 H        -3.074840         2.831295        -0.458915
 H        -2.740562         2.858205         1.298823
 H        -1.084537         1.395609        -1.143565
 H        -0.550185         2.662268         0.253839
 H        -1.330043        -1.633879         0.306647
