19
Iteration:   927charge 0 multiplicity 1
 O         0.668374         0.421944         0.604708
 C        -0.698171         0.566736         0.790888
 C        -1.398616         0.705715         2.247621
 C        -2.633261        -0.080232         1.686283
 C        -3.337092         0.700760         0.584948
 C        -2.631716         2.144601         0.343492
 C        -1.270535         1.664472        -0.128114
 O        -2.786724        -0.144103        -0.474146
 C        -1.720366        -0.611163         0.489932
 H         1.136420         1.368187         0.688103
 H        -0.861225         0.073553         2.961756
 H        -1.763556         1.645009         2.628910
 H        -3.277777        -0.844754         2.368680
 H        -4.467827         0.904556         0.570332
 H        -3.168877         2.881987        -0.450106
 H        -2.466909         2.803392         1.246326
 H        -1.423917         1.184047        -1.142058
 H        -0.543010         2.427662        -0.136218
 H        -1.364220        -1.664433         0.430585
