19
Iteration:  3056
 O         0.534483         0.233542         0.578499
 C        -0.745762         0.670480         0.783374
 C        -1.338639         0.685698         2.197454
 C        -2.570519        -0.082913         1.679038
 C        -3.291866         0.686007         0.518568
 C        -2.662792         2.048799         0.285441
 C        -1.197609         1.954435         0.004001
 O        -2.800887        -0.234588        -0.448093
 C        -1.756676        -0.493494         0.521505
 H         1.213746         0.789223         0.829912
 H        -0.731822         0.372710         2.984442
 H        -1.622488         1.625463         2.596281
 H        -3.227860        -0.804340         2.346240
 H        -4.351456         0.665411         0.735671
 H        -3.174834         2.396127        -0.644129
 H        -2.863163         2.732927         1.103850
 H        -0.842873         1.712022        -0.993418
 H        -0.443856         2.708854         0.201926
 H        -1.306317        -1.498075         0.313894
