19
Iteration:   489
 O         0.707335         0.493724         0.828781
 C        -0.718809         0.543126         0.781030
 C        -1.305677         0.672147         2.156533
 C        -2.578233         0.016345         1.656069
 C        -3.347615         0.761888         0.524579
 C        -2.674622         2.087391         0.330527
 C        -1.219474         1.640483        -0.185628
 O        -2.880653        -0.225138        -0.458341
 C        -1.818087        -0.581731         0.476556
 H         1.071062         1.138055         0.080995
 H        -0.921803        -0.178449         2.816250
 H        -1.331135         1.709580         2.587511
 H        -3.154422        -0.584973         2.311483
 H        -4.485113         0.795961         0.647281
 H        -3.129537         2.773442        -0.421502
 H        -2.569168         2.590432         1.388835
 H        -1.234438         1.288689        -1.203167
 H        -0.550257         2.429044         0.088391
 H        -1.348130        -1.616694         0.344094
