19
Iteration:  4444charge 0 multiplicity 1
 O         0.676207         0.443238         0.614667
 C        -0.718629         0.574566         0.877310
 C        -1.269815         0.612083         2.249195
 C        -2.613625        -0.068802         1.637579
 C        -3.300188         0.767485         0.498913
 C        -2.732149         2.097084         0.223589
 C        -1.097682         1.860793         0.083527
 O        -2.911651        -0.272917        -0.451585
 C        -1.848950        -0.572449         0.498649
 H         0.669824         0.605525        -0.279305
 H        -0.723319         0.053878         2.971907
 H        -1.360946         1.574102         2.713408
 H        -3.207126        -0.760826         2.194822
 H        -4.373108         0.668823         0.556472
 H        -2.940022         2.421522        -0.795824
 H        -3.008981         2.916831         0.880211
 H        -0.823118         1.710422        -0.939122
 H        -0.460383         2.665781         0.443317
 H        -1.410505        -1.513525         0.264185
