19
Iteration:  3954
 O         0.702387         0.391824         0.736301
 C        -0.704561         0.620093         0.788234
 C        -1.336710         0.639879         2.236740
 C        -2.513829        -0.098793         1.641665
 C        -3.344880         0.719395         0.565196
 C        -2.627733         2.112910         0.190321
 C        -1.140662         1.857324         0.007540
 O        -3.012806        -0.233550        -0.440754
 C        -1.804573        -0.580749         0.444977
 H         0.971265         0.710651        -0.175747
 H        -0.713197         0.041380         2.894063
 H        -1.751746         1.534399         2.631117
 H        -3.174969        -0.701576         2.290629
 H        -4.467891         0.659459         0.786705
 H        -3.270932         2.519657        -0.545946
 H        -2.648865         2.852471         1.005293
 H        -0.911550         1.676454        -1.080231
 H        -0.536454         2.730590         0.156723
 H        -1.231272        -1.481363         0.257593
