19
Iteration:  1826
 O         0.647542         0.490488         0.723562
 C        -0.816521         0.579111         0.750432
 C        -1.368884         0.579696         2.286057
 C        -2.590318        -0.102520         1.671425
 C        -3.296556         0.733205         0.570471
 C        -2.601104         2.132937         0.331924
 C        -1.145785         1.838751        -0.120685
 O        -2.838986        -0.216351        -0.451236
 C        -1.831311        -0.588429         0.408070
 H         0.968278         0.459112        -0.192999
 H        -0.756068        -0.128533         2.868010
 H        -1.560554         1.527825         2.913843
 H        -3.300168        -0.763697         2.152390
 H        -4.385692         0.751411         0.642796
 H        -3.118607         2.630082        -0.479480
 H        -2.458971         2.653448         1.282842
 H        -1.037989         1.571232        -1.188116
 H        -0.553363         2.632189         0.220428
 H        -1.305562        -1.470549         0.094749
