19
Iteration:  4046charge 0 multiplicity 1
 O         0.635177         0.272161         0.617160
 C        -0.822491         0.621481         0.775735
 C        -1.309349         0.755926         2.245207
 C        -2.586990        -0.060285         1.633438
 C        -3.359459         0.689462         0.566857
 C        -2.651422         2.062322         0.287291
 C        -1.182414         1.895754         0.051535
 O        -2.842117        -0.248081        -0.454455
 C        -1.734878        -0.569031         0.464688
 H         1.051196         0.824014        -0.195929
 H        -0.779159         0.088713         2.967936
 H        -1.539382         1.707632         2.711264
 H        -3.261904        -0.486569         2.381470
 H        -4.404287         0.738369         0.412518
 H        -3.144230         2.737197        -0.487845
 H        -2.802469         2.802150         1.049109
 H        -0.790475         1.637693        -0.966024
 H        -0.415259         2.657138         0.485735
 H        -1.218178        -1.530407         0.182281
