19
Iteration:   701
 O         0.631996         0.364601         0.428754
 C        -0.757841         0.543546         0.815297
 C        -1.335668         0.794766         2.324127
 C        -2.625388         0.035776         1.735304
 C        -3.266402         0.712258         0.439577
 C        -2.733169         2.059954         0.202945
 C        -1.183267         1.897785         0.130563
 O        -2.699582        -0.294069        -0.501252
 C        -1.832365        -0.630563         0.647397
 H         0.605024        -0.025073        -0.419931
 H        -0.941324         0.176128         3.176546
 H        -1.478727         1.907555         2.570668
 H        -3.408484        -0.383884         2.356014
 H        -4.346121         0.647366         0.495915
 H        -3.081461         2.513170        -0.690934
 H        -3.004006         2.675892         1.133006
 H        -0.844406         1.787715        -0.871833
 H        -0.659256         2.604084         0.760924
 H        -1.319520        -1.677591         0.540785
