19
Iteration:  3167charge 0 multiplicity 1
 O         0.584787         0.172891         0.562264
 C        -0.744476         0.637949         0.763041
 C        -1.312800         0.681564         2.199731
 C        -2.607585        -0.007663         1.693122
 C        -3.335408         0.709122         0.494823
 C        -2.754901         2.028365         0.227499
 C        -1.128403         1.962786         0.160134
 O        -2.778825        -0.265576        -0.493057
 C        -1.744856        -0.475090         0.516714
 H         1.152534         1.054310         0.505993
 H        -0.758831         0.033891         2.839512
 H        -1.427159         1.699497         2.523049
 H        -3.202667        -0.777119         2.335245
 H        -4.387897         0.760135         0.809021
 H        -3.403758         2.441586        -0.604313
 H        -2.914333         2.720222         1.031593
 H        -0.824582         2.021175        -0.923824
 H        -0.674986         2.872101         0.718102
 H        -1.288561        -1.481399         0.429029
