19
Iteration:  3428
 O         0.644013         0.174039         0.543823
 C        -0.743822         0.574696         0.755745
 C        -1.260875         0.746368         2.180399
 C        -2.610342         0.033473         1.721687
 C        -3.411400         0.750113         0.484752
 C        -2.792741         2.088178         0.329176
 C        -1.225104         1.893527         0.120545
 O        -2.712751        -0.268637        -0.481859
 C        -1.735284        -0.550723         0.457999
 H         1.276508         0.979067         0.726581
 H        -0.838440        -0.056587         2.764273
 H        -1.418151         1.685991         2.821331
 H        -3.143886        -0.612246         2.513662
 H        -4.472583         0.658912         0.465506
 H        -3.192831         2.624848        -0.568981
 H        -3.118243         2.809496         1.080935
 H        -1.005826         1.969045        -0.946142
 H        -0.826658         2.799849         0.493681
 H        -1.178091        -1.466915         0.484288
