19
Iteration:  3364
 O         0.708966         0.320517         0.679243
 C        -0.722433         0.666345         0.749375
 C        -1.299617         0.583331         2.270457
 C        -2.541211        -0.054674         1.674403
 C        -3.330999         0.790983         0.575305
 C        -2.718813         2.092108         0.279902
 C        -1.281343         1.810447        -0.092046
 O        -2.877697        -0.169908        -0.519849
 C        -1.766712        -0.637837         0.497453
 H         1.084472         1.187329         1.169479
 H        -0.714538        -0.084563         2.882613
 H        -1.365416         1.527494         2.800972
 H        -3.182134        -0.723705         2.313656
 H        -4.395258         0.883825         0.552628
 H        -3.120703         2.664651        -0.604895
 H        -2.789715         2.726792         1.147937
 H        -0.998776         1.554148        -1.096513
 H        -0.795987         2.767930         0.025865
 H        -1.464270        -1.609465         0.234290
