19
Iteration:  2017charge 0 multiplicity 1
 O         0.626592         0.362555         0.539686
 C        -0.756956         0.559351         0.739610
 C        -1.264741         0.633205         2.200430
 C        -2.596132         0.053908         1.701754
 C        -3.373386         0.744503         0.468380
 C        -2.771455         2.147036         0.226008
 C        -1.233269         1.866264         0.145988
 O        -2.744370        -0.319822        -0.451553
 C        -1.726625        -0.541987         0.587647
 H         0.842857        -0.044762        -0.244277
 H        -0.766744        -0.021224         2.964707
 H        -1.175224         1.778282         2.617924
 H        -3.302142        -0.451194         2.299092
 H        -4.448903         0.637700         0.421412
 H        -3.180148         2.467054        -0.814834
 H        -3.018623         2.752330         1.131740
 H        -0.830801         1.931369        -0.842297
 H        -0.650841         2.549729         0.810411
 H        -1.288463        -1.513671         0.843333
