19
Iteration:  3160
 O         0.543926         0.228987         0.534082
 C        -0.724422         0.629352         0.787363
 C        -1.356153         0.629768         2.215653
 C        -2.596635        -0.005484         1.691679
 C        -3.363525         0.689128         0.525097
 C        -2.707758         2.119009         0.237304
 C        -1.112235         1.977059         0.126594
 O        -2.785581        -0.296626        -0.461679
 C        -1.739037        -0.521079         0.502558
 H         1.111211         1.050891         0.400228
 H        -0.684377         0.076190         2.931104
 H        -1.366055         1.662833         2.642949
 H        -3.219333        -0.596525         2.237579
 H        -4.497193         0.497057         0.465633
 H        -3.148750         2.465073        -0.704532
 H        -2.877166         2.924695         1.016430
 H        -0.732571         1.796289        -0.871605
 H        -0.753540         2.715988         0.735518
 H        -1.148188        -1.415927         0.387792
