19
Iteration:  2962charge 0 multiplicity 1
 O         0.659349         0.177319         0.661643
 C        -0.734910         0.646497         0.766692
 C        -1.383559         0.812138         2.218168
 C        -2.535864        -0.086683         1.717657
 C        -3.360415         0.639990         0.645201
 C        -2.741649         2.112922         0.347373
 C        -1.150719         1.844225        -0.059985
 O        -2.829383        -0.201717        -0.542693
 C        -1.771090        -0.535523         0.428177
 H         1.248462         1.020490         0.461763
 H        -0.633702         0.419310         2.951602
 H        -1.571518         1.779721         2.711085
 H        -3.088459        -0.829777         2.212938
 H        -4.502630         0.595628         0.673517
 H        -3.272001         2.427147        -0.588904
 H        -2.851228         2.857330         1.131185
 H        -1.095056         1.902039        -1.151999
 H        -0.544832         2.751071         0.231396
 H        -1.207159        -1.429600         0.143302
