19
Iteration:  3994charge 0 multiplicity 1
 O         0.611619         0.369798         0.688441
 C        -0.798914         0.608330         0.759524
 C        -1.243476         0.593517         2.181508
 C        -2.529031        -0.013132         1.697889
 C        -3.310133         0.735569         0.517214
 C        -2.780498         2.128511         0.240153
 C        -1.215648         1.831787        -0.006464
 O        -2.779290        -0.201546        -0.476511
 C        -1.788978        -0.555649         0.504329
 H         0.945816        -0.199077        -0.076048
 H        -0.913257        -0.050740         3.000468
 H        -1.127938         1.633329         2.723841
 H        -3.130734        -0.550996         2.502779
 H        -4.447157         0.619922         0.551913
 H        -3.134303         2.774332        -0.586803
 H        -3.007893         2.789570         1.171193
 H        -0.828188         1.692899        -0.998935
 H        -0.678035         2.540643         0.628082
 H        -1.371328        -1.567714         0.398877
