19
Iteration:   407
 O         0.677761         0.345857         0.574391
 C        -0.737196         0.592860         0.730385
 C        -1.297940         0.703484         2.261983
 C        -2.562682         0.024827         1.727633
 C        -3.325130         0.724631         0.510311
 C        -2.704872         2.068482         0.046526
 C        -1.221127         2.011704         0.183624
 O        -2.852132        -0.345178        -0.431635
 C        -1.770494        -0.612535         0.507654
 H         0.766893        -0.579591         0.281120
 H        -0.783260         0.002417         2.960261
 H        -1.394865         1.689464         2.728797
 H        -3.284182        -0.543919         2.415866
 H        -4.393126         0.776195         0.678034
 H        -2.977663         2.417089        -0.964333
 H        -3.114710         2.795065         0.741043
 H        -0.672832         2.442910        -0.744895
 H        -0.877753         2.759730         0.996850
 H        -1.418039        -1.615967         0.439280
