19
Iteration:   249charge 0 multiplicity 1
 O         0.628407         0.279801         0.484706
 C        -0.687520         0.579178         0.764504
 C        -1.325637         0.682192         2.203946
 C        -2.625997         0.081270         1.726980
 C        -3.304566         0.764377         0.421637
 C        -2.746863         2.084895         0.179691
 C        -1.213622         1.867289         0.223681
 O        -2.744634        -0.359004        -0.463932
 C        -1.823624        -0.559161         0.623245
 H         0.959441         1.003321        -0.255060
 H        -0.803015         0.130913         3.075417
 H        -1.222733         1.678621         2.754192
 H        -3.246116        -0.467460         2.401317
 H        -4.364636         0.766588         0.537313
 H        -2.985127         2.461413        -0.792150
 H        -3.343750         2.817475         0.817909
 H        -0.920843         1.953159        -0.848668
 H        -0.665558         2.755578         0.893288
 H        -1.188558        -1.528424         0.792654
