19
Iteration:  1863
 O         0.696274         0.218025         0.717937
 C        -0.767119         0.605900         0.724085
 C        -1.200210         0.673336         2.250214
 C        -2.493218         0.038819         1.708348
 C        -3.339137         0.664632         0.560385
 C        -2.809960         2.041247         0.203171
 C        -1.264012         2.001633         0.140451
 O        -2.824233        -0.200835        -0.533395
 C        -1.824406        -0.544044         0.385283
 H         0.941742        -0.056381        -0.105262
 H        -0.657212        -0.028747         3.025467
 H        -1.377885         1.762653         2.727691
 H        -3.145450        -0.607009         2.331611
 H        -4.413240         0.434974         0.633413
 H        -3.328380         2.619699        -0.657822
 H        -3.137054         2.833100         0.889240
 H        -0.737872         2.097567        -0.835163
 H        -0.662744         2.805068         0.619032
 H        -1.431297        -1.599167         0.195008
