19
Iteration:  1156charge 0 multiplicity 1
 O         0.550459         0.304430         0.409435
 C        -0.778824         0.536478         0.833259
 C        -1.274731         0.688776         2.278878
 C        -2.548312         0.064283         1.687328
 C        -3.299677         0.710951         0.485432
 C        -2.728911         2.090792         0.118481
 C        -1.251373         1.898356         0.149781
 O        -2.700030        -0.274076        -0.420747
 C        -1.797699        -0.602999         0.602839
 H         1.005100         1.071980         0.547754
 H        -1.051272        -0.162528         2.927121
 H        -1.157885         1.674847         2.729274
 H        -3.315950        -0.468618         2.437734
 H        -4.360052         0.640691         0.587880
 H        -2.946353         2.399118        -0.951723
 H        -3.048800         2.874561         0.973032
 H        -0.816650         2.072895        -0.888007
 H        -0.780238         2.645978         0.818350
 H        -1.355084        -1.565446         0.557378
