19
Iteration:   738
 O         0.646692         0.274859         0.703422
 C        -0.762662         0.690052         0.774399
 C        -1.244076         0.664637         2.265635
 C        -2.572029        -0.013630         1.762812
 C        -3.327231         0.719391         0.539467
 C        -2.780887         2.062097         0.151855
 C        -1.195158         1.929891        -0.014987
 O        -2.800756        -0.264597        -0.478861
 C        -1.753781        -0.507153         0.499165
 H         0.778591        -0.366314        -0.057358
 H        -0.629420        -0.082958         2.724464
 H        -1.081681         1.587582         2.796499
 H        -3.316427        -0.648484         2.443210
 H        -4.418139         0.744959         0.613910
 H        -3.269143         2.456206        -0.892939
 H        -3.278525         2.721396         0.892368
 H        -1.074211         1.772138        -1.120052
 H        -0.734948         2.849944         0.294083
 H        -1.252751        -1.422495         0.417404
