19
Iteration:  4087charge 0 multiplicity 1
 O         0.735185         0.385739         0.724812
 C        -0.709857         0.637476         0.797896
 C        -1.265836         0.566102         2.204559
 C        -2.609500        -0.045926         1.709073
 C        -3.383372         0.762066         0.525740
 C        -2.713645         2.101107         0.207912
 C        -1.204221         1.752575        -0.056092
 O        -2.912687        -0.165212        -0.441609
 C        -1.797646        -0.597561         0.468394
 H         1.162206         1.093853         0.310140
 H        -0.777550        -0.308107         2.735643
 H        -0.947207         1.354386         2.838158
 H        -3.184601        -0.665007         2.363395
 H        -4.453349         0.824651         0.816178
 H        -3.119209         2.492934        -0.774596
 H        -2.875225         2.912335         0.980339
 H        -1.126374         1.781600        -1.163030
 H        -0.801158         2.698077         0.288015
 H        -1.207140        -1.508037         0.226763
