19
Iteration:  3178
 O         0.643470         0.131584         0.603044
 C        -0.742714         0.644380         0.765700
 C        -1.282213         0.780929         2.235544
 C        -2.532646        -0.026736         1.667502
 C        -3.319475         0.675890         0.562504
 C        -2.755517         2.029579         0.250863
 C        -1.250259         1.963199         0.088445
 O        -2.799097        -0.191596        -0.517879
 C        -1.800715        -0.545972         0.460462
 H         1.352899         0.832632         0.687163
 H        -0.822450         0.093258         2.908408
 H        -1.357633         1.684980         2.815915
 H        -3.138116        -0.733260         2.371544
 H        -4.408824         0.751902         0.363868
 H        -3.040992         2.519353        -0.726305
 H        -3.221917         2.485908         1.101595
 H        -0.951708         2.145463        -0.975954
 H        -0.697875         2.804940         0.704383
 H        -1.396665        -1.571561         0.446009
