19
Iteration:  3522charge 0 multiplicity 1
 O         0.652056         0.212935         0.731329
 C        -0.690483         0.575897         0.724295
 C        -1.290795         0.734649         2.156588
 C        -2.531435        -0.008316         1.600971
 C        -3.284820         0.749173         0.546388
 C        -2.803111         2.106617         0.364363
 C        -1.266752         1.872457        -0.036523
 O        -2.853204        -0.214407        -0.484807
 C        -1.708019        -0.574000         0.500555
 H         0.987971         1.037115         0.492954
 H        -0.710861         0.072862         2.817066
 H        -1.350012         1.710353         2.555825
 H        -3.152820        -0.621332         2.211606
 H        -4.402984         0.691092         0.531525
 H        -3.453860         2.704200        -0.214336
 H        -2.993267         2.587486         1.338763
 H        -1.307555         1.636001        -1.116369
 H        -0.507571         2.670845         0.206370
 H        -1.358145        -1.632153         0.389887
