19
Iteration:  1120
 O         0.666448         0.316207         0.547302
 C        -0.759072         0.662826         0.789786
 C        -1.299475         0.649048         2.280647
 C        -2.559732         0.020396         1.659758
 C        -3.358226         0.701731         0.517388
 C        -2.683726         2.034068         0.173566
 C        -1.180118         1.921945         0.017634
 O        -2.867286        -0.330220        -0.409282
 C        -1.790320        -0.526579         0.502919
 H         1.133590         0.952665         1.006943
 H        -0.769139        -0.204674         2.854011
 H        -1.125868         1.603989         2.911610
 H        -3.131823        -0.505869         2.390169
 H        -4.428446         0.674156         0.674405
 H        -3.187046         2.444323        -0.702893
 H        -3.071200         2.925214         0.979112
 H        -0.796841         1.793589        -1.050061
 H        -0.757871         2.829658         0.448086
 H        -1.460983        -1.540431         0.410623
