19
Iteration:  4989charge 0 multiplicity 1
 O         0.608601         0.281343         0.626769
 C        -0.790797         0.620096         0.866404
 C        -1.208851         0.628729         2.272653
 C        -2.559531         0.064284         1.670584
 C        -3.368893         0.686345         0.424068
 C        -2.775421         2.156163         0.329506
 C        -1.189414         1.891165         0.107323
 O        -2.699554        -0.218152        -0.561959
 C        -1.833742        -0.585667         0.510137
 H         0.685267         0.210487        -0.399466
 H        -0.619954        -0.083064         2.872872
 H        -1.247188         1.633603         2.787761
 H        -3.226650        -0.570338         2.337070
 H        -4.442829         0.436681         0.259910
 H        -3.191509         2.641533        -0.599896
 H        -3.046137         2.677879         1.279681
 H        -1.037840         1.715947        -0.941346
 H        -0.663386         2.755617         0.339925
 H        -1.405939        -1.643559         0.299927
