19
Iteration:  3403
 O         0.549085         0.222591         0.606669
 C        -0.765840         0.623468         0.800870
 C        -1.317855         0.753229         2.255064
 C        -2.532412        -0.120718         1.699844
 C        -3.265208         0.704382         0.558054
 C        -2.665739         2.075967         0.293855
 C        -1.205732         1.931574        -0.041317
 O        -2.831015        -0.193851        -0.495464
 C        -1.733005        -0.571037         0.404415
 H         1.171825         0.838251         0.939990
 H        -0.728473         0.170808         3.000791
 H        -1.836940         1.652086         2.668551
 H        -3.203476        -0.745870         2.318122
 H        -4.346817         0.652899         0.783892
 H        -3.285346         2.538788        -0.462070
 H        -2.813173         2.820142         1.131327
 H        -1.061612         1.785540        -1.149058
 H        -0.769591         2.908415         0.330128
 H        -1.161209        -1.533846         0.439380
