19
Iteration:  1418
 O         0.567781         0.231735         0.636201
 C        -0.787676         0.638285         0.786876
 C        -1.329458         0.721039         2.252440
 C        -2.561245        -0.122123         1.660767
 C        -3.274815         0.700223         0.515031
 C        -2.735253         2.115106         0.192887
 C        -1.149446         1.978540         0.112233
 O        -2.816846        -0.266750        -0.441912
 C        -1.701120        -0.525240         0.463396
 H         0.619012         0.232192        -0.364494
 H        -0.601528         0.112052         2.875060
 H        -1.544302         1.844939         2.711733
 H        -3.210359        -0.783775         2.289142
 H        -4.367692         0.796160         0.609715
 H        -3.224531         2.586665        -0.619667
 H        -2.994318         2.771205         1.048869
 H        -0.815457         1.951679        -0.967415
 H        -0.522216         2.803036         0.528807
 H        -1.260879        -1.513360         0.417427
