19
Iteration:  1916charge 0 multiplicity 1
 O         0.664735         0.449242         0.558013
 C        -0.717973         0.585277         0.889547
 C        -1.324783         0.631609         2.279614
 C        -2.576869        -0.036303         1.679275
 C        -3.326882         0.779992         0.453239
 C        -2.671128         2.074575         0.253830
 C        -1.194044         1.771032         0.027772
 O        -2.871620        -0.237044        -0.460691
 C        -1.759677        -0.609035         0.529108
 H         0.706797         0.856762        -0.309081
 H        -0.919814        -0.259632         2.965508
 H        -1.537301         1.740146         2.737080
 H        -3.330761        -0.576913         2.290302
 H        -4.429457         0.798257         0.505229
 H        -3.248750         2.781519        -0.565741
 H        -2.712060         2.601886         1.242431
 H        -0.770535         1.611711        -1.023231
 H        -0.693150         2.603072         0.471595
 H        -1.271365        -1.601826         0.220013
