19
Iteration:  1134
 O         0.664030         0.340780         0.459461
 C        -0.672506         0.584637         0.816401
 C        -1.200366         0.626791         2.268928
 C        -2.647597         0.093908         1.793097
 C        -3.362343         0.703133         0.449003
 C        -2.767688         2.090888         0.111841
 C        -1.190405         1.934214         0.141837
 O        -2.861961        -0.342897        -0.490138
 C        -1.803438        -0.584899         0.601763
 H         1.281081         1.090907         0.897754
 H        -0.873064        -0.212875         2.864431
 H        -1.190596         1.601347         2.757182
 H        -3.340332        -0.672755         2.414545
 H        -4.430602         0.732424         0.350219
 H        -3.083188         2.519770        -0.894312
 H        -3.055175         2.763042         1.027970
 H        -0.899548         1.891467        -0.969592
 H        -0.603344         2.753926         0.599903
 H        -1.284048        -1.507577         0.677868
