19
Iteration:  1503
 O         0.406667        -0.023977         0.159989
 C        -0.747466         0.425863         0.821570
 C        -2.088638         0.205828         0.101237
 C        -2.666765         1.343809         0.938010
 C        -2.708654         0.990852         2.467242
 C        -1.581482         2.078394         2.792012
 C        -1.200502         1.877806         1.254269
 O        -2.122913        -0.351454         2.662502
 C        -0.749424        -0.466634         2.078540
 H         0.649929         0.602022        -0.558997
 H        -2.054451         0.463863        -0.973909
 H        -2.737258        -0.686949         0.317153
 H        -3.434482         2.084436         0.682766
 H        -3.658411         0.932277         2.944377
 H        -1.948940         3.031165         2.703278
 H        -0.788707         1.909874         3.433672
 H        -0.750990         2.817119         0.744343
 H        -0.119475        -0.252962         2.869580
 H        -0.678306        -1.488548         1.805861
