19
Iteration:  4594
 O         0.448606         0.179077         0.336418
 C        -0.836102         0.393874         0.859037
 C        -2.176367         0.095628         0.119784
 C        -2.786798         1.255849         1.001084
 C        -2.572054         0.943692         2.488041
 C        -1.437411         2.128172         2.517361
 C        -1.313917         1.913683         1.014028
 O        -2.068474        -0.366951         2.787149
 C        -0.745339        -0.459271         2.142345
 H         0.519676         0.353848        -0.606885
 H        -2.156340         0.521129        -0.989345
 H        -2.655173        -0.975423         0.219616
 H        -3.660985         1.841177         0.602931
 H        -3.509604         1.067588         3.056940
 H        -2.131684         2.906142         2.783871
 H        -0.494306         1.950245         3.176902
 H        -0.864132         2.583745         0.210249
 H        -0.024372        -0.118707         2.784158
 H        -0.583798        -1.498581         1.658886
