19
Iteration:  3371
 O         0.426747         0.254982         0.208132
 C        -0.732477         0.370224         0.848782
 C        -2.074478         0.218288         0.088528
 C        -2.626692         1.321030         0.933313
 C        -2.613392         0.994491         2.520282
 C        -1.574837         2.132993         2.661683
 C        -1.186966         1.809140         1.166280
 O        -2.130858        -0.350364         2.758459
 C        -0.906924        -0.634585         2.089322
 H         0.185065        -0.281894        -0.575434
 H        -2.015989         0.587385        -0.951051
 H        -2.356068        -0.842303        -0.032653
 H        -3.453556         1.973811         0.585764
 H        -3.541834         1.226870         3.124404
 H        -2.158509         3.039937         2.804338
 H        -0.880617         1.797365         3.430767
 H        -0.737603         2.654374         0.618716
 H         0.018904        -0.553468         2.631918
 H        -1.097166        -1.723553         1.768116
