19
Iteration:  2110charge 0 multiplicity 1
 O         0.557019         0.107342         0.348174
 C        -0.844721         0.395500         0.730486
 C        -2.193947         0.260657        -0.018941
 C        -2.674773         1.246657         0.973816
 C        -2.524614         0.950043         2.526078
 C        -1.472354         2.047729         2.677366
 C        -1.280985         1.907950         1.162632
 O        -2.159118        -0.290859         2.824113
 C        -0.908075        -0.573130         2.008832
 H         0.613083         0.406413        -0.579061
 H        -2.319647         0.624108        -1.047169
 H        -2.573375        -0.754916        -0.141991
 H        -3.599905         1.791754         0.649831
 H        -3.492073         1.144428         3.015597
 H        -1.904135         3.125557         2.963109
 H        -0.579581         2.145415         3.404723
 H        -0.667086         2.685700         0.612215
 H         0.019751        -0.534885         2.493468
 H        -0.964681        -1.639956         1.723337
