19
Iteration:  2777
 O         0.489186         0.141741         0.349678
 C        -0.777166         0.457250         0.768819
 C        -2.218344         0.185124         0.097692
 C        -2.735727         1.339725         0.964040
 C        -2.604997         0.934507         2.600074
 C        -1.363683         2.016194         2.660466
 C        -1.199773         1.859788         1.118800
 O        -2.168319        -0.378747         2.625304
 C        -0.923107        -0.475143         2.031069
 H         0.827804         0.682329        -0.378596
 H        -2.257470         0.523993        -0.966737
 H        -2.702689        -0.793561         0.183233
 H        -3.539193         2.000060         0.513079
 H        -3.416776         1.024019         3.332025
 H        -2.003477         3.001783         2.929365
 H        -0.620416         1.856705         3.531030
 H        -0.539207         2.626989         0.555645
 H        -0.169468        -0.462643         2.786523
 H        -0.737586        -1.594576         1.587264
