19
Iteration:  2321
 O         0.392046         0.051102         0.096222
 C        -0.771090         0.322733         0.872606
 C        -2.193044         0.215834         0.087485
 C        -2.624933         1.375437         0.956236
 C        -2.642661         1.012295         2.494798
 C        -1.572130         1.978204         2.649295
 C        -1.085716         1.831251         1.288161
 O        -2.188771        -0.352109         2.626924
 C        -0.766063        -0.399100         2.207868
 H         0.492349         0.774634        -0.552116
 H        -2.051310         0.532893        -0.903103
 H        -2.747463        -0.723205         0.074760
 H        -3.397458         2.045476         0.547663
 H        -3.617838         0.952216         2.977206
 H        -2.026656         2.980591         2.825181
 H        -0.875134         1.806264         3.542174
 H        -0.557528         2.679569         0.852165
 H         0.015054         0.057080         2.953399
 H        -0.517835        -1.453415         1.993609
