19
Iteration:  4448
 O         0.414548         0.386266         0.162361
 C        -0.801734         0.343233         0.903802
 C        -2.126601         0.012568         0.153562
 C        -2.671050         1.244780         0.917486
 C        -2.566370         1.008464         2.473004
 C        -1.474236         2.135174         2.538385
 C        -1.322847         1.815537         1.051453
 O        -2.022258        -0.255826         2.861961
 C        -0.899373        -0.602912         2.166247
 H         0.422697        -0.280645        -0.576159
 H        -1.857423         0.238564        -0.972703
 H        -2.552996        -0.976842         0.355931
 H        -3.593637         1.781141         0.662902
 H        -3.481108         0.989697         3.124236
 H        -2.115866         3.080504         2.566757
 H        -0.768694         2.169995         3.356190
 H        -0.842429         2.547354         0.482832
 H        -0.093256        -0.514255         2.883192
 H        -0.939834        -1.706087         1.847612
