19
Iteration:  3105charge 0 multiplicity 1
 O         0.436378         0.237160         0.248064
 C        -0.866323         0.379516         0.833911
 C        -2.125098         0.182535         0.034176
 C        -2.707162         1.407518         0.952126
 C        -2.578622         0.968858         2.460326
 C        -1.465493         2.007945         2.695619
 C        -1.196462         1.909928         1.204055
 O        -2.181834        -0.402594         2.687440
 C        -0.870259        -0.542149         2.047343
 H         0.846942        -0.562180         0.661256
 H        -2.041409         0.476538        -1.110901
 H        -2.546811        -0.909021         0.172817
 H        -3.497685         2.056941         0.536347
 H        -3.387782         1.078584         3.172299
 H        -1.905798         2.895953         3.200284
 H        -0.538200         1.834057         3.199180
 H        -0.716915         2.683570         0.561345
 H        -0.010815        -0.254839         2.719320
 H        -0.466650        -1.531338         1.747250
