19
Iteration:  3079charge 0 multiplicity 1
 O         0.498569         0.258861         0.248879
 C        -0.817966         0.381126         0.778780
 C        -2.189346         0.255672        -0.103102
 C        -2.705958         1.302899         0.998018
 C        -2.665150         0.982045         2.552214
 C        -1.435365         1.937104         2.703751
 C        -1.172896         1.828693         1.107137
 O        -2.186325        -0.345303         2.783107
 C        -0.852325        -0.489791         2.124781
 H         0.811776        -0.622476         0.583364
 H        -1.903938         0.953184        -0.927505
 H        -2.681633        -0.662579        -0.478947
 H        -3.632620         1.831318         0.595332
 H        -3.603263         1.058548         3.170958
 H        -1.739407         2.952996         2.972009
 H        -0.569254         1.674167         3.385224
 H        -0.864537         2.632688         0.447729
 H         0.015728        -0.349285         2.779067
 H        -0.661304        -1.567105         1.586654
