19
Iteration:  4264
 O         0.518464         0.076462         0.210975
 C        -0.824548         0.401874         0.791494
 C        -2.196719         0.103914         0.180563
 C        -2.754252         1.230341         0.973849
 C        -2.572932         1.000061         2.510140
 C        -1.577627         2.139616         2.633767
 C        -1.273968         1.817138         1.136269
 O        -2.055483        -0.295177         2.727093
 C        -0.793502        -0.371010         2.100231
 H         0.495192         0.210225        -0.756419
 H        -2.233846         0.432369        -0.897672
 H        -2.562627        -0.860768         0.353919
 H        -3.687139         1.706694         0.617431
 H        -3.432078         0.860681         3.170979
 H        -2.092562         3.073124         2.869759
 H        -0.779951         1.898360         3.333568
 H        -0.790739         2.467018         0.396078
 H         0.126281         0.148270         2.546210
 H        -0.422188        -1.414701         2.007854
