19
Iteration:  4488charge 0 multiplicity 1
 O         0.500783         0.116826         0.088735
 C        -0.764374         0.326520         0.752052
 C        -2.144883         0.054144         0.088473
 C        -2.805783         1.286067         0.976825
 C        -2.640354         0.973597         2.542772
 C        -1.571978         2.098939         2.702563
 C        -1.329749         1.835068         1.141387
 O        -2.020697        -0.264110         2.720853
 C        -0.756678        -0.338126         2.217400
 H         0.642424        -0.830892         0.167639
 H        -2.212763         0.384235        -0.888694
 H        -2.682874        -0.920721        -0.034860
 H        -3.526510         1.964926         0.579933
 H        -3.574493         0.992793         3.046623
 H        -1.972878         3.116786         2.792674
 H        -0.712205         2.108686         3.366869
 H        -1.051113         2.651276         0.446533
 H         0.062370         0.260357         2.800151
 H        -0.381799        -1.318526         2.270326
