19
Iteration:  4680
 O         0.404974         0.313758         0.128414
 C        -0.807463         0.301706         0.875289
 C        -2.133989         0.058684         0.164696
 C        -2.639442         1.219485         0.992408
 C        -2.586932         0.986512         2.442911
 C        -1.575343         2.156132         2.578319
 C        -1.236987         1.810710         1.159239
 O        -2.088045        -0.287804         2.743148
 C        -0.791743        -0.482684         2.151024
 H         0.566933        -0.611969        -0.126018
 H        -2.284041         0.138083        -0.951728
 H        -2.693339        -0.828636         0.397960
 H        -3.496837         1.924101         0.637085
 H        -3.630848         0.955317         2.898136
 H        -1.978272         3.177130         2.656188
 H        -0.848769         2.108311         3.456557
 H        -0.848780         2.622764         0.500321
 H         0.020980        -0.034034         2.906974
 H        -0.509521        -1.579618         1.874192
