19
Iteration:    40charge 0 multiplicity 1
 O         0.493591         0.224405         0.292897
 C        -0.808131         0.374563         0.803008
 C        -2.127108         0.309444         0.087044
 C        -2.645578         1.371298         1.039073
 C        -2.606960         0.965552         2.484734
 C        -1.379476         1.893967         2.694829
 C        -1.189056         1.801875         1.221200
 O        -2.204629        -0.358829         2.613489
 C        -1.029056        -0.573511         2.019938
 H         0.754168         1.143051         0.014316
 H        -2.164598         0.816197        -1.014918
 H        -2.575697        -0.679813         0.058431
 H        -3.534793         1.999955         0.781707
 H        -3.496896         1.101794         3.097677
 H        -1.785257         2.941634         2.916191
 H        -0.572232         1.446843         3.314633
 H        -0.650875         2.558683         0.571618
 H        -0.022131        -0.443066         2.628671
 H        -1.049777        -1.572071         1.496095
