19
Iteration:   944
 O         0.388263         0.020015         0.056689
 C        -0.694550         0.332247         0.783094
 C        -2.101358         0.356408         0.026839
 C        -2.645813         1.382828         0.997191
 C        -2.699508         0.943215         2.501129
 C        -1.641044         2.088899         2.822969
 C        -1.103860         1.800519         1.265648
 O        -2.161285        -0.355562         2.750035
 C        -0.832903        -0.536560         2.071898
 H         0.855530         0.854553        -0.065260
 H        -1.830448         1.028434        -0.704543
 H        -2.580301        -0.581752        -0.354017
 H        -3.455253         2.123352         0.625236
 H        -3.728046         0.899060         2.945735
 H        -1.943398         3.078209         2.820328
 H        -1.074536         1.854151         3.674714
 H        -0.456933         2.507432         0.808565
 H         0.089865        -0.363512         2.567580
 H        -0.781056        -1.567787         1.710728
