19
Iteration:  2276
 O         0.432227         0.140119         0.226475
 C        -0.766462         0.397872         0.878916
 C        -2.157514         0.139697         0.098037
 C        -2.682906         1.350387         0.931751
 C        -2.649073         1.001621         2.483757
 C        -1.494066         2.025725         2.673127
 C        -1.172048         1.880565         1.162035
 O        -2.136978        -0.295581         2.717203
 C        -0.861963        -0.583398         2.045114
 H         0.599962         0.836634        -0.418742
 H        -2.000494         0.463614        -0.926544
 H        -2.637121        -0.860481        -0.009834
 H        -3.581251         1.952701         0.586244
 H        -3.459069         1.141212         3.212275
 H        -1.904099         3.091223         2.946769
 H        -0.691468         1.883804         3.506646
 H        -0.497186         2.575626         0.629508
 H         0.003201        -0.630871         2.870140
 H        -1.046239        -1.631850         1.794606
