19
Iteration:  4185
 O         0.472021         0.196799         0.212343
 C        -0.777595         0.315094         0.781617
 C        -2.193508         0.081232         0.132466
 C        -2.735458         1.255205         0.912886
 C        -2.601377         0.958596         2.509390
 C        -1.526595         2.129824         2.633908
 C        -1.327919         1.913750         1.081564
 O        -2.047889        -0.277125         2.831984
 C        -0.751315        -0.456937         2.142073
 H         0.363756        -0.352535        -0.589530
 H        -2.152467         0.219044        -0.961197
 H        -2.703975        -0.880229         0.230716
 H        -3.676470         1.738945         0.696898
 H        -3.509512         0.883388         3.134074
 H        -1.974788         3.106665         2.815263
 H        -0.763860         2.077101         3.375215
 H        -0.813516         2.585235         0.425099
 H         0.230183        -0.002071         2.601043
 H        -0.713014        -1.559455         1.805235
