19
Iteration:  2397charge 0 multiplicity 1
 O         0.473722         0.258319         0.288905
 C        -0.859670         0.319535         0.853999
 C        -2.169325         0.231590        -0.061371
 C        -2.629083         1.263480         0.916056
 C        -2.556330         1.060300         2.470396
 C        -1.454757         2.067796         2.696335
 C        -1.206749         1.844517         1.205280
 O        -2.112202        -0.310240         2.799320
 C        -0.973602        -0.713348         2.087770
 H         0.430966         0.459399        -0.651808
 H        -2.058859         0.763896        -0.950129
 H        -2.814743        -0.617540        -0.016461
 H        -3.434722         1.944016         0.563515
 H        -3.453486         1.036119         3.048472
 H        -1.869402         3.108011         2.788174
 H        -0.579313         1.768882         3.358129
 H        -0.676818         2.553717         0.553736
 H        -0.062032        -0.497448         2.712118
 H        -0.966980        -1.689404         1.733405
