19
Iteration:  3278charge 0 multiplicity 1
 O         0.440554         0.067808         0.054990
 C        -0.739690         0.381138         0.790939
 C        -2.058152         0.214965         0.051201
 C        -2.645703         1.352979         0.983161
 C        -2.681721         0.927253         2.534319
 C        -1.565451         2.070985         2.735577
 C        -1.171389         1.785730         1.299467
 O        -2.202693        -0.300084         2.720826
 C        -0.856398        -0.487035         2.096817
 H         1.039301         0.823387         0.132529
 H        -1.953543         0.573387        -0.961781
 H        -2.524958        -0.662991        -0.118074
 H        -3.451194         2.083109         0.681696
 H        -3.610880         1.052503         3.070947
 H        -2.119122         3.005313         2.621473
 H        -0.785707         1.981779         3.492406
 H        -0.705068         2.565821         0.673807
 H        -0.157392        -0.261514         2.942139
 H        -0.815106        -1.519605         1.713869
