19
Iteration:    34charge 0 multiplicity 1
 O         0.551041         0.210268         0.267552
 C        -0.811309         0.388407         0.774563
 C        -2.155831         0.289526         0.054222
 C        -2.676007         1.413226         0.989473
 C        -2.627296         0.943595         2.477560
 C        -1.347694         1.875515         2.725257
 C        -1.209783         1.824114         1.233043
 O        -2.197698        -0.364983         2.676839
 C        -1.043973        -0.540303         1.957733
 H         0.933591         1.112103         0.236933
 H        -2.214930         0.519198        -0.979905
 H        -2.588028        -0.726012         0.220045
 H        -3.514158         2.050766         0.745424
 H        -3.546917         1.074921         3.060025
 H        -1.585038         2.847799         3.116732
 H        -0.578112         1.434569         3.351507
 H        -0.746532         2.652555         0.711961
 H        -0.252449        -0.327467         2.705703
 H        -0.996394        -1.609539         1.736868
