19
Iteration:    87charge 0 multiplicity 1
 O         0.435035         0.090095         0.114304
 C        -0.723183         0.424020         0.812830
 C        -2.117196         0.361429         0.051001
 C        -2.559228         1.408638         1.015724
 C        -2.686195         0.932497         2.463733
 C        -1.635248         1.938418         2.818082
 C        -1.064600         1.903210         1.329660
 O        -2.171136        -0.351553         2.718728
 C        -0.872463        -0.572521         1.970546
 H         0.179691        -0.383037        -0.702298
 H        -1.932596         0.815671        -1.037720
 H        -2.669376        -0.600076        -0.073225
 H        -3.273875         2.105463         0.751871
 H        -3.673412         1.008162         2.881775
 H        -2.191273         2.902602         2.887697
 H        -1.078827         1.644856         3.730834
 H        -0.618145         2.800884         0.866398
 H        -0.087705        -0.357998         2.824466
 H        -0.871077        -1.615681         1.567386
