19
Iteration:  1993charge 0 multiplicity 1
 O         0.497800         0.137793         0.247916
 C        -0.811307         0.385304         0.868188
 C        -2.135976         0.260917         0.002205
 C        -2.654632         1.321138         0.926508
 C        -2.584042         0.906458         2.524644
 C        -1.458776         2.047235         2.619010
 C        -1.244083         1.928170         1.196944
 O        -2.121992        -0.343996         2.834808
 C        -0.988541        -0.586506         2.025877
 H         0.624124         0.604348        -0.577602
 H        -2.007258         0.644714        -1.039254
 H        -2.529199        -0.812537        -0.073777
 H        -3.610457         1.977495         0.705321
 H        -3.612052         0.967062         3.077111
 H        -1.818554         3.056442         2.791697
 H        -0.686492         1.951082         3.401855
 H        -0.772554         2.849499         0.737211
 H         0.052409        -0.483455         2.559669
 H        -1.020406        -1.726361         1.704855
