19
Iteration:  2701
 O         0.474973         0.124297         0.151764
 C        -0.810877         0.357011         0.821518
 C        -2.181906         0.188822         0.036763
 C        -2.612475         1.400768         0.939926
 C        -2.614904         0.987776         2.444356
 C        -1.650135         2.133126         2.772007
 C        -1.156251         1.878493         1.281264
 O        -2.079585        -0.359374         2.739252
 C        -0.864823        -0.618266         2.111465
 H         0.348185         0.276645        -0.816661
 H        -2.064865         0.639654        -0.937914
 H        -2.496581        -0.793477         0.272240
 H        -3.418837         2.159066         0.667915
 H        -3.559861         1.058534         2.954358
 H        -2.100026         3.141740         2.751701
 H        -0.834551         1.929123         3.471121
 H        -0.568392         2.636569         0.679782
 H         0.089348        -0.569807         2.671440
 H        -0.918660        -1.766157         1.709558
