19
Iteration:  1512
 O         0.434162        -0.014377         0.179902
 C        -0.741086         0.421063         0.849873
 C        -2.135917         0.220201         0.027476
 C        -2.617256         1.365632         0.972015
 C        -2.683845         0.960396         2.471187
 C        -1.563303         2.124246         2.747146
 C        -1.215848         1.908477         1.221431
 O        -2.120943        -0.384244         2.730175
 C        -0.844526        -0.489719         2.072827
 H         0.640994         0.639872        -0.528187
 H        -2.090103         0.467784        -1.031840
 H        -2.456177        -0.823625         0.157436
 H        -3.595461         1.793946         0.606941
 H        -3.650849         0.993796         2.939471
 H        -1.874016         3.131441         3.024874
 H        -0.893460         1.944544         3.614035
 H        -0.773164         2.713752         0.571883
 H         0.120588        -0.301197         2.677794
 H        -0.715880        -1.427860         1.628901
