19
Iteration:  3385
 O         0.418949         0.132664         0.237437
 C        -0.841226         0.392869         0.919604
 C        -2.071991         0.156179         0.109093
 C        -2.639201         1.317940         0.962401
 C        -2.626807         0.958949         2.454903
 C        -1.546638         2.099560         2.662476
 C        -1.186832         1.958872         1.222567
 O        -2.136354        -0.338871         2.718425
 C        -0.827413        -0.572618         2.010117
 H         0.297623         0.174310        -0.733382
 H        -1.838072         0.534720        -0.913192
 H        -2.723408        -0.835478         0.243694
 H        -3.533091         1.916537         0.633070
 H        -3.612299         0.913656         2.906298
 H        -2.012570         3.112145         2.799213
 H        -0.712162         2.130608         3.410623
 H        -0.550996         2.528790         0.569003
 H        -0.062100        -0.545741         2.742563
 H        -0.789234        -1.485482         1.524435
