19
Iteration:  2811charge 0 multiplicity 1
 O         0.464206         0.262378         0.230009
 C        -0.775154         0.355369         0.833769
 C        -2.173768         0.232346        -0.018477
 C        -2.657553         1.323229         0.914039
 C        -2.612944         0.973473         2.526751
 C        -1.457933         2.038382         2.736076
 C        -1.204181         1.840038         1.119934
 O        -2.122170        -0.310946         2.797294
 C        -0.945626        -0.709869         2.086842
 H         0.683735         1.047328        -0.280418
 H        -2.095553         0.622283        -1.085037
 H        -2.718406        -0.719184        -0.077452
 H        -3.417352         2.099271         0.550002
 H        -3.446942         1.051972         3.239972
 H        -1.843066         3.111328         3.027428
 H        -0.637361         1.783078         3.488849
 H        -0.584961         2.483305         0.401559
 H        -0.122375        -0.667097         2.766169
 H        -1.260277        -1.786822         1.712054
