19
Iteration:  3600
 O         0.347319         0.165272         0.177678
 C        -0.801420         0.324710         0.905121
 C        -2.130984         0.102553        -0.016689
 C        -2.680700         1.284628         0.872492
 C        -2.580617         0.949067         2.504112
 C        -1.510407         2.095101         2.629243
 C        -1.274051         1.904838         1.149403
 O        -2.036359        -0.298707         2.825564
 C        -0.870930        -0.541496         2.168418
 H         0.860622         0.993761         0.296590
 H        -1.863481         0.756690        -0.855065
 H        -2.461919        -0.904394        -0.232795
 H        -3.554286         1.893828         0.562676
 H        -3.564292         1.146036         3.009068
 H        -1.886701         3.166433         2.704921
 H        -0.598518         1.956150         3.298581
 H        -0.720104         2.481239         0.346273
 H        -0.083686        -0.310878         2.803504
 H        -0.815332        -1.597866         2.034417
