19
Iteration:  1198charge 0 multiplicity 1
 O         0.393774        -0.015851         0.088465
 C        -0.749347         0.394875         0.891377
 C        -2.072876         0.275594         0.088911
 C        -2.666661         1.362623         0.900691
 C        -2.727365         0.964919         2.437307
 C        -1.540388         1.979227         2.771699
 C        -1.162584         1.894369         1.324351
 O        -2.133281        -0.341488         2.677684
 C        -0.819625        -0.387798         2.108169
 H         0.292792         0.466126        -0.765226
 H        -1.948511         0.716610        -0.864101
 H        -2.554353        -0.742133         0.064302
 H        -3.544527         1.993471         0.558443
 H        -3.673206         0.964449         3.013757
 H        -2.006024         2.963415         2.905564
 H        -0.836816         1.661604         3.534649
 H        -0.488259         2.504793         0.829026
 H         0.099530        -0.227497         2.754875
 H        -0.541151        -1.508066         2.001521
