19
Iteration:  3116
 O         0.440638         0.244784         0.178901
 C        -0.762220         0.413895         0.831066
 C        -2.157812         0.151367         0.124416
 C        -2.621603         1.364449         0.947111
 C        -2.634563         0.997339         2.551570
 C        -1.489864         2.059586         2.737984
 C        -1.180032         1.909577         1.163480
 O        -2.188479        -0.417830         2.634836
 C        -0.852424        -0.555896         2.035680
 H         0.880559        -0.565265         0.501000
 H        -2.024774         0.466712        -0.999899
 H        -2.668256        -0.896180         0.164587
 H        -3.526767         1.913142         0.674236
 H        -3.587840         1.087336         3.063549
 H        -2.026769         3.030894         2.775971
 H        -0.847894         1.911404         3.587829
 H        -0.627628         2.672980         0.570579
 H        -0.149414        -0.456267         2.870959
 H        -0.970014        -1.587477         1.631978
