19
Iteration:  4355
 O         0.399742         0.142453         0.016919
 C        -0.767804         0.383881         0.830037
 C        -2.159549         0.017520         0.136009
 C        -2.650020         1.259044         0.972818
 C        -2.647101         0.951628         2.574030
 C        -1.607458         2.094955         2.614063
 C        -1.254436         1.913365         1.147317
 O        -2.103745        -0.297165         2.748294
 C        -0.722599        -0.382933         2.173837
 H         1.032533        -0.315107         0.570669
 H        -2.250716         0.398704        -0.877698
 H        -2.366922        -1.113319         0.224883
 H        -3.517394         1.869825         0.638495
 H        -3.624002         1.153883         3.037741
 H        -2.023667         3.133803         2.438163
 H        -0.863173         2.269751         3.506908
 H        -0.785990         2.597427         0.332190
 H         0.143708        -0.043721         2.834205
 H        -0.672905        -1.439334         2.228587
