19
Iteration:  4154
 O         0.461581         0.213546         0.271348
 C        -0.824931         0.423036         0.799058
 C        -2.113984         0.101488         0.110655
 C        -2.770201         1.226244         0.960394
 C        -2.576407         0.924333         2.585326
 C        -1.448591         2.171469         2.562419
 C        -1.346413         1.841498         1.015826
 O        -2.074046        -0.336915         2.813504
 C        -0.794862        -0.421281         2.100623
 H         0.355591        -0.579630        -0.271051
 H        -2.136936         0.338888        -1.036721
 H        -2.599383        -0.853491         0.150815
 H        -3.733057         1.670108         0.732772
 H        -3.472364         1.061764         3.237501
 H        -1.936291         3.161771         2.833428
 H        -0.603889         1.981858         3.321808
 H        -0.894736         2.503476         0.234485
 H         0.140177        -0.095094         2.569733
 H        -0.709153        -1.524712         1.826995
