19
Iteration:  3946
 O         0.385869         0.096202         0.111509
 C        -0.838534         0.380923         0.840879
 C        -2.131802         0.138171         0.066273
 C        -2.724614         1.296460         0.943314
 C        -2.659828         0.937799         2.445024
 C        -1.576866         2.076539         2.663509
 C        -1.254851         1.952154         1.105945
 O        -2.016849        -0.354532         2.772707
 C        -0.706355        -0.357441         2.252442
 H         0.768633        -0.804274         0.151685
 H        -1.887451         0.343374        -1.030288
 H        -2.678419        -0.794171         0.045945
 H        -3.669177         1.606702         0.551042
 H        -3.573849         1.031463         3.060305
 H        -1.931510         3.107656         2.961279
 H        -0.859394         1.880778         3.480001
 H        -0.823613         2.738119         0.487824
 H         0.119416         0.093327         2.967509
 H        -0.552725        -1.276347         1.927570
