19
Iteration:   550charge 0 multiplicity 1
 O         0.460904         0.049581         0.177988
 C        -0.791796         0.367245         0.835136
 C        -2.132385         0.302041         0.102187
 C        -2.603195         1.419266         0.962147
 C        -2.660432         0.974577         2.507203
 C        -1.630970         2.009575         2.715054
 C        -1.098963         1.954523         1.265919
 O        -2.153630        -0.396357         2.706753
 C        -0.857351        -0.581477         2.017808
 H         0.369391         0.250271        -0.769451
 H        -1.929206         0.680518        -0.834720
 H        -2.644899        -0.638151        -0.129356
 H        -3.439290         1.978918         0.632440
 H        -3.695800         1.064184         2.993281
 H        -2.137886         2.956337         2.889969
 H        -0.859821         2.045430         3.562132
 H        -0.442806         2.705026         0.866870
 H         0.021548        -0.347132         2.678652
 H        -0.752419        -1.616780         1.655320
