19
Iteration:   850
 O         0.407522         0.379543         0.188777
 C        -0.788562         0.353839         0.831055
 C        -2.115544         0.247755         0.016048
 C        -2.577761         1.369830         1.014923
 C        -2.618820         0.925943         2.510159
 C        -1.397834         2.004209         2.692915
 C        -1.129725         1.791642         1.244910
 O        -2.289908        -0.413782         2.640999
 C        -0.984045        -0.593812         2.063308
 H         0.856035        -0.485833         0.118934
 H        -1.919163         0.763104        -0.943892
 H        -2.817624        -0.510976         0.206091
 H        -3.267376         2.137049         0.819724
 H        -3.556049         1.122300         2.900705
 H        -1.688075         3.096948         3.020945
 H        -0.559870         1.765909         3.456735
 H        -0.443004         2.444887         0.628616
 H        -0.138090        -0.458635         2.846856
 H        -0.907360        -1.630065         1.745829
