19
Iteration:   107
 O         0.420396         0.087846         0.050790
 C        -0.789551         0.358160         0.828993
 C        -2.037854         0.347312         0.015265
 C        -2.653298         1.453063         0.925094
 C        -2.779706         1.031496         2.472112
 C        -1.580006         1.912689         2.927920
 C        -1.167554         1.783232         1.427279
 O        -2.097256        -0.332377         2.613083
 C        -0.809054        -0.465091         2.040124
 H         0.268374        -0.772609        -0.337500
 H        -1.929348         0.721294        -1.110591
 H        -2.513755        -0.615054        -0.072341
 H        -3.332330         2.179589         0.503081
 H        -3.716430         0.914255         2.957275
 H        -1.735236         3.046146         3.165257
 H        -0.890827         1.417428         3.659332
 H        -0.479333         2.560942         0.987867
 H        -0.008191        -0.163677         2.759975
 H        -0.926298        -1.536070         1.782103
