19
Iteration:  4364
 O         0.336745         0.099063         0.051753
 C        -0.725545         0.391599         0.872562
 C        -2.129702         0.098634         0.156427
 C        -2.695482         1.229505         0.945326
 C        -2.606131         0.954477         2.528523
 C        -1.599780         2.163460         2.633634
 C        -1.296928         1.858592         1.085763
 O        -2.073825        -0.312042         2.714696
 C        -0.709166        -0.366526         2.218853
 H         0.872757        -0.564623         0.487295
 H        -1.973584         0.453322        -0.877903
 H        -2.540820        -0.912847         0.149839
 H        -3.523874         1.857819         0.520442
 H        -3.512163         1.053610         3.178422
 H        -2.251274         2.996029         2.900052
 H        -0.787392         1.981957         3.340157
 H        -0.781916         2.594178         0.433627
 H        -0.065721         0.243129         2.933388
 H        -0.390409        -1.365388         1.932899
