19
Iteration:   932
 O         0.448692        -0.000289         0.046402
 C        -0.829619         0.345657         0.828213
 C        -2.058933         0.428554        -0.035489
 C        -2.572585         1.378088         1.014893
 C        -2.696600         0.946844         2.478879
 C        -1.645480         2.092798         2.766697
 C        -1.129982         1.815921         1.359302
 O        -2.111483        -0.391455         2.770646
 C        -0.851463        -0.588028         2.060658
 H         0.757751         0.754779        -0.525260
 H        -1.965061         0.830507        -1.008293
 H        -2.653215        -0.472478        -0.190774
 H        -3.287229         2.274093         0.750530
 H        -3.710000         0.961314         2.999467
 H        -2.241249         2.978720         2.715497
 H        -1.022625         2.190462         3.633703
 H        -0.792417         2.597733         0.764683
 H        -0.095129        -0.330550         2.802594
 H        -0.863136        -1.683345         1.870792
