19
Iteration:  1095
 O         0.448954         0.086097         0.168048
 C        -0.743124         0.398707         0.798552
 C        -2.198661         0.239408         0.134309
 C        -2.604703         1.418591         0.980509
 C        -2.635791         0.940333         2.521570
 C        -1.534937         1.993659         2.670600
 C        -1.164214         1.792844         1.227462
 O        -2.179958        -0.404841         2.613869
 C        -0.878326        -0.439883         2.130517
 H         0.857070         0.902944        -0.118601
 H        -2.214060         0.415595        -0.937288
 H        -2.633374        -0.733329         0.218364
 H        -3.265954         2.297611         0.756670
 H        -3.602112         0.908177         3.055085
 H        -1.924238         3.040529         2.800802
 H        -0.743161         1.865404         3.491828
 H        -0.758608         2.563681         0.656490
 H        -0.218791        -0.064623         2.860498
 H        -0.583100        -1.345823         1.701554
