19
Iteration:  2929charge 0 multiplicity 1
 O         0.530446         0.261070         0.202228
 C        -0.751881         0.344182         0.830747
 C        -2.155797         0.183543        -0.016677
 C        -2.645168         1.300837         0.990070
 C        -2.646510         1.046064         2.529916
 C        -1.518580         2.022678         2.681508
 C        -1.197694         1.731425         1.264300
 O        -2.116099        -0.286325         2.810859
 C        -0.981274        -0.652135         1.993574
 H         0.669039         1.088031        -0.321625
 H        -2.128166         0.699706        -1.047164
 H        -2.817003        -0.691897        -0.220057
 H        -3.341551         2.154264         0.780308
 H        -3.577836         1.116761         3.119126
 H        -1.778455         3.115331         2.615769
 H        -0.759937         1.877552         3.440509
 H        -0.737800         2.429180         0.509858
 H         0.010906        -0.678196         2.672039
 H        -1.298455        -1.545240         1.532207
