19
Iteration:  3789
 O         0.416855         0.185540        -0.013428
 C        -0.733896         0.313224         0.824296
 C        -2.103103         0.097401         0.070027
 C        -2.695945         1.209421         0.925727
 C        -2.699809         1.053958         2.517455
 C        -1.606068         2.094012         2.654205
 C        -1.225660         1.804110         1.206875
 O        -2.091354        -0.269879         2.862804
 C        -0.792891        -0.453988         2.141794
 H         1.288553         0.449297         0.310612
 H        -1.868443         0.481682        -0.872303
 H        -2.603323        -0.885108         0.223581
 H        -3.504896         1.837549         0.430464
 H        -3.637972         1.189420         2.978789
 H        -1.982000         3.124612         2.929309
 H        -0.947843         1.823755         3.529900
 H        -0.916774         2.596753         0.522098
 H         0.211222        -0.265173         2.770984
 H        -0.858575        -1.536071         2.058511
