19
Iteration:   998
 O         0.490326         0.335945         0.202005
 C        -0.787559         0.368527         0.844866
 C        -2.171663         0.212222         0.136635
 C        -2.719014         1.332318         1.042331
 C        -2.556154         1.026653         2.518525
 C        -1.395926         1.983631         2.637033
 C        -1.153668         1.840611         1.175524
 O        -2.248375        -0.406633         2.577309
 C        -0.962387        -0.586398         2.067993
 H         0.948411        -0.397327         0.623162
 H        -2.119336         0.576973        -0.841050
 H        -2.726927        -0.765679         0.053535
 H        -3.551352         2.011586         0.612655
 H        -3.374381         1.168481         3.252549
 H        -1.813593         2.928688         2.887726
 H        -0.629268         1.864842         3.374980
 H        -0.584414         2.522642         0.669960
 H        -0.002070        -0.365272         2.680441
 H        -0.963576        -1.653030         1.696684
