19
Iteration:  4064
 O         0.540748         0.149628         0.093475
 C        -0.799649         0.350696         0.774550
 C        -2.152508         0.124311         0.109046
 C        -2.705035         1.232970         1.018358
 C        -2.630297         1.020340         2.566652
 C        -1.578212         2.112751         2.569967
 C        -1.279525         1.813608         1.167596
 O        -2.092789        -0.349986         2.772786
 C        -0.767994        -0.316238         2.140751
 H         0.358270        -0.766544        -0.149684
 H        -2.299678         0.552807        -0.902189
 H        -2.591535        -0.911845         0.163736
 H        -3.510888         1.743488         0.508298
 H        -3.483907         1.021564         3.239128
 H        -2.050619         3.095231         2.780816
 H        -0.787898         2.090581         3.335160
 H        -0.825491         2.547823         0.580653
 H        -0.181547         0.106272         2.819860
 H        -0.725070        -1.446185         2.160191
