19
Iteration:  4002charge 0 multiplicity 1
 O         0.524134         0.340988         0.135474
 C        -0.812040         0.308143         0.793158
 C        -2.161806        -0.003359         0.149047
 C        -2.679266         1.293721         1.002853
 C        -2.614251         1.022524         2.496749
 C        -1.571102         2.158515         2.589493
 C        -1.282314         1.804743         1.169304
 O        -2.066319        -0.254209         2.839416
 C        -0.867255        -0.585611         2.089392
 H         0.741681        -0.543914        -0.191452
 H        -2.201766         0.245969        -0.951517
 H        -2.475403        -0.976145         0.400857
 H        -3.447441         1.858997         0.517895
 H        -3.539763         1.187047         3.059651
 H        -2.090542         3.149554         2.514160
 H        -0.768150         2.162517         3.350797
 H        -0.858375         2.520559         0.429130
 H         0.168169        -0.563563         2.706717
 H        -0.891750        -1.516993         1.653728
