19
Iteration:  3861charge 0 multiplicity 1
 O         0.495274         0.283735         0.158173
 C        -0.830651         0.375129         0.817248
 C        -2.134044         0.029268         0.067374
 C        -2.717897         1.205695         0.968026
 C        -2.641331         1.016893         2.491523
 C        -1.494939         2.057127         2.609586
 C        -1.259423         1.826031         1.136671
 O        -2.138915        -0.293241         2.818278
 C        -0.812310        -0.406091         2.129234
 H         0.588000        -0.626917        -0.151432
 H        -2.064671         0.506087        -0.931674
 H        -2.581857        -0.928817         0.226671
 H        -3.530736         1.730911         0.526701
 H        -3.378233         1.254578         3.277619
 H        -1.878794         3.002560         2.918480
 H        -0.677595         1.815586         3.296532
 H        -0.839587         2.604339         0.423360
 H        -0.109622        -0.002074         2.812876
 H        -0.440883        -1.559541         1.904179
