19
Iteration:  4010charge 0 multiplicity 1
 O         0.476378         0.357049         0.196714
 C        -0.775343         0.302177         0.829209
 C        -2.145817         0.008226         0.128416
 C        -2.754523         1.297178         0.955483
 C        -2.637446         1.058426         2.497237
 C        -1.513451         2.152155         2.586589
 C        -1.255799         1.831746         1.083093
 O        -2.021873        -0.291323         2.872151
 C        -0.837894        -0.571586         2.065556
 H         0.530616        -0.511780        -0.234286
 H        -2.035793         0.136105        -0.986965
 H        -2.659310        -0.988405         0.245383
 H        -3.583804         1.913715         0.604435
 H        -3.547578         1.035721         3.116384
 H        -2.134348         3.122390         2.570599
 H        -0.818511         2.025372         3.461442
 H        -0.841859         2.558515         0.438883
 H         0.002837        -0.730039         2.730471
 H        -1.030490        -1.652460         1.772769
