19
Iteration:  1904charge 0 multiplicity 1
 O         0.384780        -0.079944         0.063573
 C        -0.743408         0.371027         0.816065
 C        -2.074605         0.246857         0.075912
 C        -2.680536         1.361443         0.910050
 C        -2.646619         1.009810         2.529697
 C        -1.599603         2.052910         2.851065
 C        -1.172082         1.884828         1.275092
 O        -2.180794        -0.314440         2.621036
 C        -0.737171        -0.450547         2.106409
 H         0.479869         0.689907        -0.496582
 H        -1.850022         0.648449        -0.957474
 H        -2.509583        -0.790167         0.055143
 H        -3.595191         1.964250         0.585384
 H        -3.607658         0.940069         3.114947
 H        -2.092818         2.928581         3.056591
 H        -1.150499         1.808480         3.819431
 H        -0.618917         2.735892         0.777567
 H        -0.041317         0.024940         2.667785
 H        -0.328171        -1.480461         2.206401
