19
Iteration:  2833
 O         0.362484         0.105629         0.121157
 C        -0.787211         0.367524         0.818635
 C        -2.011678         0.267525         0.044254
 C        -2.631593         1.330744         0.955984
 C        -2.637605         0.970859         2.457152
 C        -1.532593         2.037724         2.706626
 C        -1.211793         1.835505         1.248753
 O        -2.129170        -0.353865         2.849300
 C        -0.896215        -0.536604         2.029948
 H         0.594061         0.877868        -0.448102
 H        -1.889553         0.617326        -0.997827
 H        -2.416971        -0.714203        -0.164587
 H        -3.410709         2.123096         0.651573
 H        -3.563053         1.119393         3.039443
 H        -1.994075         3.065377         3.021515
 H        -0.874285         1.806028         3.605338
 H        -0.491688         2.634530         0.836889
 H        -0.110522        -0.311252         2.704381
 H        -0.971660        -1.648520         1.653050
