19
Iteration:  2394charge 0 multiplicity 1
 O         0.489040         0.259733         0.288562
 C        -0.834577         0.293131         0.860729
 C        -2.175393         0.203690        -0.078245
 C        -2.627277         1.270640         0.920043
 C        -2.577129         1.053069         2.482142
 C        -1.459874         2.092674         2.697822
 C        -1.224252         1.849753         1.210986
 O        -2.120333        -0.306468         2.811704
 C        -0.960208        -0.712680         2.079620
 H         0.434327         0.405653        -0.686073
 H        -2.056288         0.878306        -1.005853
 H        -2.842770        -0.698835        -0.154261
 H        -3.502295         1.906819         0.701534
 H        -3.415380         1.192114         3.119676
 H        -1.779376         3.168818         2.803581
 H        -0.638818         1.783226         3.317619
 H        -0.589205         2.548832         0.652167
 H        -0.065957        -0.512249         2.597559
 H        -1.034162        -1.644238         1.546859
