19
Iteration:   466charge 0 multiplicity 1
 O         0.515660         0.230014         0.280829
 C        -0.824750         0.298615         0.808888
 C        -2.169467         0.337258         0.009860
 C        -2.724694         1.318758         0.988659
 C        -2.539162         1.019888         2.550413
 C        -1.460510         2.115348         2.739629
 C        -1.225658         1.829171         1.239329
 O        -2.162793        -0.365982         2.655215
 C        -0.954723        -0.680478         1.952974
 H         0.988922        -0.608172         0.480526
 H        -1.959628         0.918761        -0.992083
 H        -2.646894        -0.664132        -0.224273
 H        -3.563894         1.955023         0.703289
 H        -3.443182         1.176075         3.051823
 H        -1.981069         3.110689         2.791211
 H        -0.590760         1.969365         3.366314
 H        -0.648605         2.566066         0.569422
 H        -0.068156        -0.470500         2.630227
 H        -0.845556        -1.751880         1.733029
