19
Iteration:  1488
 O         0.420959         0.030504         0.098012
 C        -0.749354         0.308091         0.864407
 C        -2.157246         0.181685         0.176165
 C        -2.638501         1.437474         0.952735
 C        -2.653364         0.967450         2.489585
 C        -1.619599         1.982499         2.696315
 C        -1.164024         1.843155         1.284712
 O        -2.128834        -0.302104         2.547573
 C        -0.799661        -0.414042         2.171629
 H         0.441989         0.639406        -0.684314
 H        -1.972682         0.466544        -0.852568
 H        -2.506037        -0.823591         0.203405
 H        -3.358732         2.132225         0.372219
 H        -3.545620         1.029327         3.163268
 H        -2.159746         2.931504         3.023384
 H        -1.036033         1.893271         3.694641
 H        -0.603908         2.583449         0.784241
 H         0.049866         0.170772         2.787566
 H        -0.500469        -1.476018         2.107681
