19
Iteration:  3669charge 0 multiplicity 1
 O         0.322259         0.233975         0.083987
 C        -0.802988         0.311726         0.890078
 C        -2.141312         0.111888         0.112718
 C        -2.683058         1.345458         0.905561
 C        -2.691532         0.952020         2.432610
 C        -1.600292         2.145191         2.613361
 C        -1.153355         1.825649         1.193148
 O        -2.021901        -0.318455         2.744833
 C        -0.762310        -0.506840         2.206940
 H         0.899821        -0.416029         0.537751
 H        -1.900284         0.478951        -0.825627
 H        -2.679316        -0.820738         0.348228
 H        -3.386688         2.087648         0.428514
 H        -3.569593         0.812533         2.972321
 H        -2.194039         3.090821         2.774984
 H        -0.776470         2.097162         3.405492
 H        -0.550535         2.552537         0.713984
 H         0.056345        -0.232351         2.807458
 H        -0.588580        -1.629431         1.877870
