19
Iteration:  4826
 O         0.411698         0.130949         0.143675
 C        -0.813380         0.352038         0.784783
 C        -2.123966         0.155277         0.116305
 C        -2.720743         1.257970         1.009521
 C        -2.602615         1.003613         2.503812
 C        -1.517951         2.127973         2.570491
 C        -1.264922         1.841020         1.081795
 O        -2.122364        -0.418824         2.777731
 C        -0.785057        -0.434906         2.215431
 H         1.066433         0.807017         0.421351
 H        -2.228260         0.581589        -0.841458
 H        -2.670557        -0.815830         0.001472
 H        -3.417316         1.826750         0.538257
 H        -3.396519         1.062553         3.147753
 H        -1.923015         3.126913         2.549276
 H        -0.691383         1.987163         3.252693
 H        -0.793403         2.571698         0.399114
 H        -0.139523         0.226783         2.849060
 H        -0.394852        -1.529767         2.115061
