19
Iteration:  4922charge 0 multiplicity 1
 O         0.435537         0.023616         0.022609
 C        -0.744206         0.421236         0.812501
 C        -2.201681         0.139916         0.182802
 C        -2.680957         1.282773         0.945153
 C        -2.650590         0.940525         2.491140
 C        -1.568100         2.068602         2.649821
 C        -1.276366         1.866377         1.169854
 O        -2.082338        -0.340564         2.701756
 C        -0.755789        -0.298923         2.203564
 H         1.113919        -0.331138         0.619407
 H        -2.102250         0.463102        -0.857928
 H        -2.572532        -0.898574         0.133801
 H        -3.495410         2.070306         0.830030
 H        -3.593062         1.024715         3.011695
 H        -2.177991         2.959653         2.751831
 H        -0.782652         2.029953         3.463602
 H        -0.923800         2.754389         0.567215
 H        -0.024616         0.133734         2.943052
 H        -0.459215        -1.300187         2.039719
