19
Iteration:  4405charge 0 multiplicity 1
 O         0.480131         0.212662         0.119287
 C        -0.811142         0.337435         0.821412
 C        -2.159184         0.076711         0.086867
 C        -2.683073         1.214735         0.948656
 C        -2.571003         0.967640         2.535265
 C        -1.632215         2.071817         2.625110
 C        -1.226641         1.806251         1.123968
 O        -2.024894        -0.254683         2.827002
 C        -0.825365        -0.322345         2.136460
 H         0.556495        -0.757745        -0.048317
 H        -2.084871         0.365991        -1.000610
 H        -2.744969        -0.780382         0.302529
 H        -3.517870         1.876698         0.666816
 H        -3.524806         1.068850         3.081008
 H        -2.173382         3.038120         2.719391
 H        -0.843309         2.005330         3.319363
 H        -1.058286         2.420326         0.303390
 H         0.022410        -0.022295         2.761472
 H        -0.900115        -1.476318         1.984996
