19
Iteration:  4521
 O         0.300455         0.113653         0.014163
 C        -0.789738         0.376359         0.873201
 C        -2.098369         0.044935         0.137271
 C        -2.666224         1.339061         0.860116
 C        -2.594024         0.918483         2.458028
 C        -1.632371         2.190666         2.692532
 C        -1.244986         1.921613         1.134231
 O        -2.020415        -0.376062         2.833784
 C        -0.776616        -0.434054         2.211451
 H         1.122503        -0.071558         0.506673
 H        -1.984948         0.303038        -0.849217
 H        -2.503938        -1.001417         0.215589
 H        -3.437025         1.976801         0.496184
 H        -3.479309         0.896558         3.042851
 H        -2.284534         3.079773         2.607633
 H        -0.857754         2.335653         3.427695
 H        -0.909304         2.706016         0.442333
 H         0.199419         0.058557         2.755657
 H        -0.619468        -1.487203         1.944012
