19
Iteration:  4148charge 0 multiplicity 1
 O         0.502512         0.235531         0.213668
 C        -0.853815         0.388469         0.789881
 C        -2.124878         0.055114         0.079705
 C        -2.775049         1.213454         0.986761
 C        -2.597195         0.935745         2.604397
 C        -1.435941         2.182642         2.584852
 C        -1.318060         1.832032         1.065674
 O        -2.103087        -0.297088         2.815072
 C        -0.788377        -0.446219         2.076039
 H         0.526861        -0.604683        -0.310384
 H        -1.984814         0.471979        -0.893251
 H        -2.652042        -0.942499         0.111821
 H        -3.764908         1.639407         0.683666
 H        -3.503694         1.149045         3.167568
 H        -1.909002         3.149227         2.679117
 H        -0.635617         1.993482         3.297123
 H        -1.043573         2.667225         0.381193
 H         0.059099        -0.073809         2.716118
 H        -0.657490        -1.507873         2.025853
