19
Iteration:   503
 O         0.452077         0.247207         0.060741
 C        -0.743695         0.358170         0.839339
 C        -2.095188         0.254740         0.160772
 C        -2.623613         1.397199         0.910322
 C        -2.650137         0.978066         2.369279
 C        -1.489831         1.891852         2.747855
 C        -1.103884         1.828359         1.306305
 O        -2.278302        -0.341634         2.697417
 C        -0.889720        -0.493147         2.140823
 H         0.284352        -0.440170        -0.597923
 H        -2.059241         0.342511        -0.920886
 H        -2.592938        -0.698396         0.336991
 H        -3.526392         2.043080         0.532091
 H        -3.579102         1.076734         3.032016
 H        -1.831234         2.846958         3.052430
 H        -0.859352         1.648472         3.560789
 H        -0.475963         2.656777         0.969500
 H        -0.145473        -0.048010         2.862932
 H        -0.740021        -1.608194         1.901395
