19
Iteration:   187charge 0 multiplicity 1
 O         0.535337         0.268691         0.257964
 C        -0.780105         0.436213         0.773489
 C        -2.158559         0.353659        -0.068872
 C        -2.667824         1.373370         0.960979
 C        -2.702315         0.926350         2.512404
 C        -1.439629         1.890959         2.734343
 C        -1.136276         1.821636         1.249383
 O        -2.183101        -0.334069         2.831956
 C        -0.990971        -0.571822         1.911366
 H         0.881006        -0.610534         0.184652
 H        -2.160804         0.811902        -1.073903
 H        -2.686373        -0.645080         0.144271
 H        -3.448229         1.968151         0.681726
 H        -3.615354         1.081753         3.124018
 H        -1.555410         2.923948         3.039124
 H        -0.692292         1.349119         3.374669
 H        -0.656096         2.550837         0.660748
 H        -0.010076        -0.656101         2.473119
 H        -1.082658        -1.595572         1.640274
