19
Iteration:  3478
 O         0.472897         0.237751         0.129439
 C        -0.741291         0.419659         0.847763
 C        -2.113697         0.137583         0.078490
 C        -2.661706         1.294097         0.983705
 C        -2.658972         1.008511         2.484286
 C        -1.580208         2.139800         2.648063
 C        -1.202589         1.792552         1.191437
 O        -2.085649        -0.250185         2.780859
 C        -0.880058        -0.627919         2.027710
 H         0.711686        -0.662949         0.456492
 H        -2.185306         0.466933        -1.008410
 H        -2.495926        -0.853071         0.305326
 H        -3.601199         1.753026         0.667413
 H        -3.564956         1.084208         3.221619
 H        -2.181749         3.120663         2.808257
 H        -0.930914         1.977590         3.595730
 H        -0.697968         2.591550         0.521288
 H         0.025853        -0.669276         2.707354
 H        -1.104338        -1.683209         1.580293
