19
Iteration:  2948charge 0 multiplicity 1
 O         0.477179         0.167311         0.325923
 C        -0.845741         0.280502         0.746984
 C        -2.173109         0.286159         0.019361
 C        -2.666280         1.343812         0.945517
 C        -2.583248         0.945226         2.507097
 C        -1.491700         2.142241         2.709453
 C        -1.190255         1.904027         1.193335
 O        -2.067787        -0.337072         2.801948
 C        -0.959967        -0.680630         1.934946
 H         0.810607         1.057536         0.088276
 H        -2.199694         0.393127        -1.096353
 H        -2.638280        -0.766095         0.031870
 H        -3.524639         1.895634         0.635710
 H        -3.516284         0.965383         3.090788
 H        -2.026885         3.050911         2.882892
 H        -0.816978         2.059850         3.560788
 H        -0.617972         2.585929         0.592916
 H         0.042594        -0.552126         2.435948
 H        -1.033468        -1.747209         1.618885
