19
Iteration:  4978
 O         0.451120         0.251578         0.024648
 C        -0.739979         0.274116         0.750124
 C        -2.097225         0.126970         0.057619
 C        -2.671961         1.226390         0.934301
 C        -2.680134         1.072047         2.610186
 C        -1.584232         2.118700         2.574708
 C        -1.228753         1.764006         1.129426
 O        -2.084066        -0.286346         2.906199
 C        -0.905392        -0.585369         2.162662
 H         1.047275         0.960168         0.376591
 H        -2.022920         0.617739        -0.872194
 H        -2.478050        -0.950864         0.115457
 H        -3.561178         1.910268         0.790930
 H        -3.517111         1.096363         3.224368
 H        -1.991589         3.143203         2.576720
 H        -0.929188         2.032500         3.488875
 H        -0.548483         2.478342         0.574143
 H         0.017942        -0.149942         2.663468
 H        -0.896901        -1.662772         2.096419
