19
Iteration:  2956charge 0 multiplicity 1
 O         0.452613         0.107590         0.325746
 C        -0.826154         0.347051         0.790517
 C        -2.140492         0.228179        -0.023345
 C        -2.660405         1.375692         0.941487
 C        -2.544892         0.995385         2.514165
 C        -1.551822         2.113796         2.698163
 C        -1.234522         1.950273         1.203695
 O        -2.043999        -0.410785         2.755134
 C        -0.923863        -0.652469         1.988297
 H         0.843127         0.978532         0.080057
 H        -2.167060         0.590567        -1.034940
 H        -2.832174        -0.560003         0.208843
 H        -3.565815         1.971921         0.835124
 H        -3.456549         1.022183         3.105431
 H        -1.940240         3.142152         2.740861
 H        -0.752440         1.888474         3.479508
 H        -0.754841         2.580277         0.438490
 H        -0.065116        -0.497253         2.493256
 H        -1.152971        -1.683266         1.570279
