19
Iteration:   636charge 0 multiplicity 1
 O         0.395348         0.130474         0.164284
 C        -0.809857         0.403999         0.862616
 C        -2.152733         0.189625         0.089153
 C        -2.564671         1.399669         0.939720
 C        -2.621172         1.073088         2.473973
 C        -1.526179         1.983117         2.791760
 C        -1.090572         1.871520         1.270152
 O        -2.207553        -0.390465         2.573596
 C        -0.879416        -0.567916         2.074953
 H         0.720081         0.882417        -0.322166
 H        -1.965191         0.431206        -0.951038
 H        -2.571060        -0.815666         0.373799
 H        -3.382005         2.126606         0.616865
 H        -3.596536         1.035248         3.105919
 H        -1.863738         2.932692         3.145452
 H        -0.932556         1.588049         3.617388
 H        -0.633249         2.566649         0.593351
 H        -0.104549        -0.301498         2.827922
 H        -0.840790        -1.640641         1.714485
