19
Iteration:  3203charge 0 multiplicity 1
 O         0.596621         0.089603         0.275640
 C        -0.722908         0.442803         0.820407
 C        -2.167328         0.195027         0.061678
 C        -2.673019         1.268474         1.003329
 C        -2.623179         0.967850         2.585305
 C        -1.424866         2.126032         2.717454
 C        -1.285021         1.864476         1.245116
 O        -2.223832        -0.363718         2.560135
 C        -0.950090        -0.471429         2.023884
 H         0.399640         0.062850        -0.695758
 H        -2.242577         0.550253        -1.042928
 H        -2.452830        -0.907647         0.062797
 H        -3.446463         2.009435         0.737194
 H        -3.547527         1.166217         3.110318
 H        -2.050890         2.994326         3.038923
 H        -0.596713         2.067987         3.399294
 H        -0.876501         2.572911         0.500929
 H        -0.144542        -0.311972         2.711009
 H        -0.742900        -1.653345         1.884313
