19
Iteration:  1477
 O         0.418271         0.098615         0.082909
 C        -0.752419         0.308667         0.867098
 C        -2.150382         0.169879         0.077803
 C        -2.583126         1.402811         0.934257
 C        -2.716558         1.015135         2.455363
 C        -1.574116         2.064398         2.832644
 C        -1.106556         1.813611         1.200067
 O        -2.173105        -0.414552         2.602162
 C        -0.767079        -0.393131         2.219134
 H         0.161563         0.647835        -0.695911
 H        -2.133237         0.436582        -0.974257
 H        -2.777219        -0.667852         0.262508
 H        -3.577539         1.911707         0.696336
 H        -3.714850         0.965107         2.975873
 H        -1.961974         3.105971         2.747450
 H        -0.804031         1.759641         3.605598
 H        -0.551259         2.553564         0.678977
 H        -0.148644         0.102659         3.089911
 H        -0.505922        -1.458962         2.172316
