19
Iteration:  4754charge 0 multiplicity 1
 O         0.429546         0.243175         0.047483
 C        -0.738732         0.306387         0.858519
 C        -2.148032         0.144730         0.074886
 C        -2.682798         1.266746         0.913033
 C        -2.614861         1.008849         2.514829
 C        -1.604799         2.177660         2.574462
 C        -1.272052         1.818989         1.200708
 O        -2.005201        -0.308824         2.868653
 C        -0.857314        -0.571912         2.129942
 H         1.077801        -0.182855         0.630221
 H        -2.153403         0.191298        -1.049882
 H        -2.454955        -0.914357         0.197781
 H        -3.649264         1.849195         0.558810
 H        -3.577513         1.108709         3.215159
 H        -2.344325         3.045628         2.572528
 H        -0.854470         2.254132         3.387082
 H        -0.848489         2.568433         0.543962
 H         0.002615        -0.192292         2.648174
 H        -0.857582        -1.604779         2.000187
