19
Iteration:   971
 O         0.388294         0.171215         0.115628
 C        -0.736675         0.423459         0.798020
 C        -2.118727         0.217301         0.058260
 C        -2.634720         1.411820         0.930422
 C        -2.609489         0.949389         2.458232
 C        -1.411257         1.954708         2.769283
 C        -1.245214         1.863583         1.262562
 O        -2.240366        -0.393366         2.675527
 C        -0.912641        -0.525085         2.106072
 H         1.101034         0.442492         0.706547
 H        -2.154342         0.380486        -1.115890
 H        -2.563879        -0.749608         0.337106
 H        -3.244265         2.198268         0.569371
 H        -3.561998         1.059815         2.960640
 H        -1.729686         3.000702         3.242319
 H        -0.541549         1.707995         3.478779
 H        -0.731850         2.736036         0.651106
 H         0.021584        -0.309515         2.685897
 H        -0.844376        -1.572002         1.784107
