19
Iteration:  2849charge 0 multiplicity 1
 O         0.458456        -0.020711         0.103607
 C        -0.791299         0.385101         0.814200
 C        -2.148628         0.276004         0.000187
 C        -2.600387         1.362898         0.978313
 C        -2.675618         0.967427         2.557941
 C        -1.626558         2.045468         2.833315
 C        -1.118889         1.884817         1.262399
 O        -2.117453        -0.320308         2.656908
 C        -0.830775        -0.490559         2.111123
 H         0.563443         0.632677        -0.627479
 H        -2.104668         0.681837        -1.077507
 H        -2.706884        -0.737483        -0.073155
 H        -3.457472         1.900834         0.674768
 H        -3.693175         0.894642         2.948569
 H        -2.005998         3.013374         2.943076
 H        -0.887982         1.906972         3.604842
 H        -0.999895         2.680743         0.586079
 H         0.092399        -0.277893         2.809725
 H        -0.643039        -1.534565         1.916559
