19
Iteration:    24charge 0 multiplicity 1
 O         0.560115         0.185500         0.232627
 C        -0.795410         0.433641         0.742495
 C        -2.233626         0.221429        -0.039945
 C        -2.666946         1.410324         0.914276
 C        -2.646808         0.983630         2.546036
 C        -1.376650         1.885353         2.816480
 C        -1.193217         1.902484         1.240852
 O        -2.275991        -0.393428         2.734917
 C        -0.906816        -0.564872         1.960802
 H         1.099673         0.983937         0.483878
 H        -2.203000         0.366818        -1.048328
 H        -2.774492        -0.725004         0.207660
 H        -3.427263         2.175904         0.576432
 H        -3.588815         1.159477         3.125447
 H        -1.518461         2.829651         3.271400
 H        -0.567830         1.404672         3.366658
 H        -0.739188         2.720030         0.712058
 H        -0.084459        -0.367860         2.568557
 H        -0.811039        -1.602427         1.641672
