19
Iteration:  3715
 O         0.512023         0.200687         0.193247
 C        -0.779493         0.378982         0.792574
 C        -2.127515         0.096405         0.082752
 C        -2.653044         1.194426         0.923118
 C        -2.660228         1.022081         2.560338
 C        -1.562232         2.051134         2.679314
 C        -1.280646         1.843757         1.152687
 O        -2.112901        -0.287929         2.773543
 C        -0.814641        -0.401998         2.086715
 H         0.426127        -0.490924        -0.502621
 H        -2.224036         0.584720        -0.911705
 H        -2.571419        -0.905479         0.225893
 H        -3.539413         1.814772         0.659299
 H        -3.583516         1.111912         3.170688
 H        -1.754341         3.139662         2.737646
 H        -0.824601         1.909905         3.491595
 H        -0.917741         2.525046         0.380911
 H        -0.126273        -0.083545         2.773520
 H        -0.630044        -1.537496         1.742250
