19
Iteration:  1877
 O         0.460002         0.047697         0.130142
 C        -0.764567         0.392675         0.843009
 C        -2.136010         0.295364         0.036636
 C        -2.615413         1.378064         0.949955
 C        -2.708305         0.893143         2.478922
 C        -1.562028         2.075637         2.722830
 C        -1.127589         1.821373         1.221912
 O        -2.120950        -0.312208         2.788482
 C        -0.872745        -0.505331         2.056708
 H         0.176299         0.422265        -0.702256
 H        -2.085851         0.588090        -1.008679
 H        -2.641822        -0.681287         0.107435
 H        -3.408233         2.081853         0.770465
 H        -3.737165         0.798439         2.877740
 H        -1.988871         3.130178         3.010019
 H        -0.946662         1.746827         3.588367
 H        -0.605944         2.628455         0.678897
 H         0.087323        -0.229066         2.833824
 H        -0.726861        -1.583008         1.989253
