19
Iteration:   382
 O         0.409356         0.125712        -0.025941
 C        -0.744532         0.308760         0.821229
 C        -2.154906         0.268918         0.057575
 C        -2.602284         1.450783         0.976629
 C        -2.646063         0.925740         2.469118
 C        -1.535820         2.034399         2.814710
 C        -1.006734         1.874539         1.359398
 O        -2.268498        -0.467027         2.573804
 C        -0.880746        -0.513755         2.184166
 H         0.993272         0.868800         0.176025
 H        -2.071982         0.373678        -1.029440
 H        -2.576917        -0.632947         0.305448
 H        -3.414256         2.271382         0.697621
 H        -3.627079         0.975293         2.977996
 H        -2.102215         2.975347         2.777109
 H        -0.897707         2.300698         3.661370
 H        -0.418396         2.687108         0.845395
 H        -0.424121        -0.063870         3.017758
 H        -0.761192        -1.615269         2.158058
