19
Iteration:  3189charge 0 multiplicity 1
 O         0.520245         0.112975         0.268096
 C        -0.787132         0.375426         0.818749
 C        -2.114725         0.267023         0.043891
 C        -2.698188         1.370156         0.951317
 C        -2.631296         1.006183         2.525699
 C        -1.529022         2.005153         2.713065
 C        -1.217219         1.884080         1.168878
 O        -2.181704        -0.422914         2.677217
 C        -0.835551        -0.470638         2.093910
 H         0.484647        -0.292421        -0.600564
 H        -2.015654         0.664405        -0.959589
 H        -2.686787        -0.610602         0.046621
 H        -3.590965         1.909245         0.488073
 H        -3.484881         1.024863         3.241822
 H        -1.855111         3.052973         2.876628
 H        -0.714657         1.664692         3.397720
 H        -0.833115         2.775555         0.629857
 H        -0.140688        -0.104994         2.865369
 H        -0.716994        -1.490126         1.669498
