19
Iteration:   705charge 0 multiplicity 1
 O         0.460675         0.186472         0.251033
 C        -0.800747         0.337231         0.850737
 C        -2.074748         0.354055        -0.001711
 C        -2.752292         1.374119         0.965129
 C        -2.619847         0.968579         2.495137
 C        -1.490478         2.014196         2.715993
 C        -1.114460         1.857315         1.261661
 O        -2.162092        -0.375273         2.695385
 C        -0.933592        -0.604835         2.002746
 H         0.245210        -0.327006        -0.534653
 H        -1.840412         0.979579        -0.831268
 H        -2.559915        -0.641135        -0.166713
 H        -3.563881         1.967816         0.640085
 H        -3.512797         1.040300         3.200876
 H        -1.939691         3.063128         2.855295
 H        -0.707609         1.658029         3.492401
 H        -0.334908         2.544404         0.867445
 H        -0.106643        -0.340813         2.755603
 H        -0.920640        -1.644357         1.666465
