19
Iteration:  4471
 O         0.482883         0.234460         0.145039
 C        -0.809496         0.355693         0.831886
 C        -2.212423         0.064594         0.089959
 C        -2.669703         1.177027         0.930681
 C        -2.654161         1.031747         2.535319
 C        -1.541072         2.111276         2.606344
 C        -1.269239         1.826947         1.094066
 O        -2.094954        -0.307096         2.859050
 C        -0.748900        -0.366835         2.107952
 H         0.555936        -0.629773        -0.282289
 H        -2.070674         0.301065        -1.062110
 H        -2.528113        -0.951083         0.289227
 H        -3.609527         1.698273         0.610970
 H        -3.499137         1.184436         3.283750
 H        -1.919428         3.140376         2.849167
 H        -0.858541         1.805214         3.415976
 H        -0.806308         2.555543         0.450882
 H         0.095736         0.036915         2.693951
 H        -0.603478        -1.490828         1.894546
