19
Iteration:  2847charge 0 multiplicity 1
 O         0.435712        -0.003176         0.102333
 C        -0.783516         0.398611         0.815853
 C        -2.129484         0.267810        -0.008560
 C        -2.598534         1.350760         0.978838
 C        -2.676109         0.963060         2.547456
 C        -1.623682         2.044628         2.837229
 C        -1.120618         1.883140         1.250274
 O        -2.119657        -0.318009         2.683735
 C        -0.846217        -0.500733         2.106852
 H         0.590772         0.645728        -0.599543
 H        -2.075885         0.762153        -1.060934
 H        -2.651112        -0.763102        -0.024112
 H        -3.443495         1.962325         0.638046
 H        -3.692713         0.908632         2.979215
 H        -2.028733         3.044369         2.918741
 H        -0.844806         1.849964         3.607241
 H        -0.918782         2.659078         0.510526
 H         0.082939        -0.303469         2.766371
 H        -0.632197        -1.634788         1.916294
