19
Iteration:  4607charge 0 multiplicity 1
 O         0.472866         0.127429         0.290010
 C        -0.799174         0.405313         0.819549
 C        -2.120624         0.128369         0.108678
 C        -2.735013         1.271180         0.955093
 C        -2.611059         0.955030         2.564366
 C        -1.530249         2.114966         2.561995
 C        -1.389641         1.820821         1.119201
 O        -2.058654        -0.321167         2.714676
 C        -0.744823        -0.401351         2.105747
 H         0.303186        -0.109241        -0.665891
 H        -2.062225         0.270618        -0.993715
 H        -2.582635        -0.954899         0.269814
 H        -3.605727         1.859900         0.805902
 H        -3.405686         1.054087         3.249656
 H        -1.824817         3.142766         2.714361
 H        -0.564130         2.189470         3.156637
 H        -1.045865         2.642173         0.424018
 H         0.041150        -0.118460         2.697675
 H        -0.609038        -1.522663         2.018339
