19
Iteration:   226
 O         0.429107         0.153677         0.111205
 C        -0.775617         0.302972         0.880250
 C        -2.090777         0.387373         0.093023
 C        -2.619711         1.383282         1.029127
 C        -2.660645         0.947591         2.448483
 C        -1.540823         2.127027         2.766493
 C        -1.143554         1.859905         1.378419
 O        -2.207891        -0.416792         2.519369
 C        -0.809587        -0.619551         2.116874
 H         0.091420        -0.439567        -0.616997
 H        -1.894272         0.791306        -0.951402
 H        -2.658633        -0.484761        -0.028342
 H        -3.573186         2.039635         0.655678
 H        -3.610658         0.998971         2.942949
 H        -2.015200         3.158180         2.867285
 H        -0.784033         1.842751         3.488728
 H        -0.456973         2.618486         0.818074
 H        -0.136708        -0.334335         2.922508
 H        -0.708169        -1.759027         1.820334
