19
Iteration:  3154charge 0 multiplicity 1
 O         0.389925         0.283282         0.061775
 C        -0.767585         0.285661         0.868008
 C        -2.074868         0.206999        -0.024974
 C        -2.568326         1.360632         0.859357
 C        -2.662241         1.006110         2.501167
 C        -1.637362         2.044380         2.796811
 C        -1.147054         1.805348         1.258574
 O        -2.159367        -0.327198         2.799210
 C        -0.843128        -0.561514         2.129413
 H         0.534119        -0.577845        -0.339163
 H        -1.861043         0.516806        -0.993682
 H        -2.751871        -0.578121        -0.072414
 H        -3.336769         2.034975         0.407822
 H        -3.658939         0.963722         3.026433
 H        -1.873819         3.112086         2.773336
 H        -1.149084         1.874568         3.826588
 H        -0.479226         2.591365         0.904737
 H         0.171243        -0.495717         2.645760
 H        -0.776133        -1.618039         1.946569
