19
Iteration:  1324charge 0 multiplicity 1
 O         0.427970         0.106979         0.151723
 C        -0.759457         0.349050         0.904049
 C        -2.187900         0.194861         0.045147
 C        -2.608006         1.372149         0.926028
 C        -2.609165         1.024323         2.429479
 C        -1.569171         2.070062         2.757292
 C        -1.193262         1.905154         1.245913
 O        -2.118763        -0.361339         2.658243
 C        -0.793572        -0.569647         2.162509
 H         0.093535         0.161464        -0.738758
 H        -2.154457         0.540999        -1.055830
 H        -2.767362        -0.733643         0.185025
 H        -3.363206         2.069576         0.539132
 H        -3.565516         1.018754         2.970674
 H        -2.246359         2.921102         2.967612
 H        -0.857922         1.979082         3.619966
 H        -0.533975         2.668346         0.688428
 H        -0.075808        -0.274916         2.946420
 H        -0.720922        -1.549893         1.835305
