19
Iteration:   712charge 0 multiplicity 1
 O         0.490106         0.223084         0.259641
 C        -0.765595         0.354223         0.836586
 C        -2.110622         0.305859         0.016547
 C        -2.719205         1.371783         0.966621
 C        -2.581156         1.036302         2.485328
 C        -1.502318         1.974661         2.738110
 C        -1.143751         1.853241         1.252610
 O        -2.204319        -0.360959         2.694156
 C        -0.915701        -0.620636         1.999314
 H         0.402319        -0.370728        -0.526596
 H        -2.030209         0.828080        -1.016172
 H        -2.683736        -0.683338        -0.165336
 H        -3.613104         2.071387         0.670469
 H        -3.529979         1.060785         3.171233
 H        -1.750287         2.920930         3.093515
 H        -0.842318         1.731538         3.520685
 H        -0.515378         2.539951         0.682411
 H        -0.067503        -0.603551         2.679827
 H        -0.977771        -1.702889         1.653729
