19
Iteration:  3926
 O         0.481177         0.171357         0.113629
 C        -0.703292         0.392489         0.764273
 C        -2.138928         0.110721         0.105890
 C        -2.686218         1.239597         0.995061
 C        -2.629542         0.957565         2.558364
 C        -1.625693         2.145198         2.617270
 C        -1.293194         1.805740         1.199160
 O        -2.062260        -0.274708         2.799142
 C        -0.827737        -0.444778         2.066485
 H         0.498704        -0.825975         0.112926
 H        -2.094348         0.356164        -0.990837
 H        -2.566012        -0.822817         0.218633
 H        -3.370197         1.920474         0.543509
 H        -3.575542         1.068131         3.116235
 H        -2.162345         3.047558         2.755095
 H        -0.904768         2.224454         3.400140
 H        -0.841454         2.532895         0.486540
 H        -0.074905         0.083990         2.654899
 H        -0.649194        -1.519683         1.982184
