19
Iteration:  2515charge 0 multiplicity 1
 O         0.538397         0.206096         0.299387
 C        -0.793641         0.377611         0.779620
 C        -2.089960         0.163916        -0.009323
 C        -2.745706         1.310313         1.044016
 C        -2.629779         1.055244         2.586669
 C        -1.434473         2.053300         2.713247
 C        -1.232382         1.796985         1.136228
 O        -2.163165        -0.272447         2.731295
 C        -0.936965        -0.638977         1.991950
 H         0.662210         0.664488        -0.565095
 H        -2.324103         0.583491        -1.065568
 H        -2.500169        -0.889887         0.219766
 H        -3.626376         1.829521         0.645208
 H        -3.559781         1.311981         2.980451
 H        -1.827716         3.082516         2.775399
 H        -0.689465         1.810344         3.459680
 H        -0.632068         2.503808         0.552233
 H        -0.016733        -0.640753         2.650402
 H        -1.029306        -1.727347         1.518979
