19
Iteration:  2041
 O         0.393912         0.024973         0.052142
 C        -0.721449         0.354151         0.832795
 C        -2.109329         0.217262         0.103074
 C        -2.603029         1.414526         0.951527
 C        -2.743946         0.979778         2.461746
 C        -1.536911         1.996559         2.750200
 C        -1.163591         1.826545         1.295652
 O        -2.216364        -0.359786         2.658046
 C        -0.732711        -0.389390         2.175405
 H         0.672846         0.515181        -0.755773
 H        -2.182598         0.438446        -0.962376
 H        -2.689330        -0.673787         0.315516
 H        -3.333739         2.040913         0.561501
 H        -3.649466         1.023621         3.018673
 H        -2.160540         2.925198         3.051722
 H        -0.812262         1.993986         3.576487
 H        -0.773270         2.621314         0.740941
 H        -0.030077        -0.055000         2.857087
 H        -0.449293        -1.389223         1.946626
