19
Iteration:  2677
 O         0.469574         0.168988         0.296818
 C        -0.827432         0.372969         0.824804
 C        -2.114310         0.209824         0.124397
 C        -2.686993         1.337445         0.940168
 C        -2.617877         0.936087         2.524303
 C        -1.407376         2.050203         2.669091
 C        -1.223774         1.836729         1.178906
 O        -2.171842        -0.354922         2.701214
 C        -0.914720        -0.500451         2.032408
 H         0.530658         0.685560        -0.527228
 H        -2.033460         0.629225        -0.839523
 H        -2.550711        -0.776575         0.171640
 H        -3.513839         1.841514         0.453330
 H        -3.529905         1.074765         3.087806
 H        -1.775302         3.101685         2.916739
 H        -0.428890         1.789520         3.133459
 H        -0.826447         2.626619         0.481437
 H        -0.012093        -0.455732         2.653433
 H        -1.012495        -1.572794         1.542922
