19
Iteration:  2246charge 0 multiplicity 1
 O         0.502968         0.109314         0.365006
 C        -0.768000         0.371700         0.779847
 C        -2.233642         0.227768        -0.126713
 C        -2.650596         1.321234         0.987702
 C        -2.618074         0.947858         2.603742
 C        -1.477933         2.092090         2.644746
 C        -1.255432         1.865558         1.150361
 O        -2.121883        -0.324033         2.815889
 C        -0.893048        -0.548747         2.009689
 H         0.765555         0.357267        -0.541815
 H        -2.131216         0.667630        -1.105699
 H        -2.672569        -0.736651        -0.361854
 H        -3.449912         2.015115         0.716861
 H        -3.450137         1.035198         3.337584
 H        -1.918075         3.007256         2.866212
 H        -0.651465         2.008217         3.302966
 H        -0.746137         2.604078         0.519486
 H        -0.042413        -0.350443         2.530772
 H        -0.937060        -1.619899         1.822753
