19
Iteration:  1830
 O         0.558098         0.263433         0.311984
 C        -0.778570         0.350863         0.748119
 C        -2.128832         0.242154         0.096831
 C        -2.730080         1.277801         1.041563
 C        -2.588006         1.087372         2.503664
 C        -1.376674         2.025935         2.653438
 C        -1.246272         1.839654         1.143677
 O        -2.247590        -0.397564         2.753550
 C        -0.975502        -0.582658         1.988418
 H         0.677797         0.069991        -0.658560
 H        -2.148569         0.558349        -0.951024
 H        -2.489992        -0.822649         0.148155
 H        -3.715992         1.817189         0.768782
 H        -3.463028         1.255837         3.215711
 H        -1.674532         3.158686         2.831149
 H        -0.507245         1.819906         3.357532
 H        -0.839693         2.515886         0.408605
 H         0.032605        -0.593341         2.721401
 H        -0.851830        -1.638277         1.571248
