19
Iteration:  3285charge 0 multiplicity 1
 O         0.438147         0.045128         0.064451
 C        -0.709027         0.392994         0.808651
 C        -2.086631         0.245773         0.085350
 C        -2.626987         1.354045         0.998440
 C        -2.679217         0.970123         2.536848
 C        -1.519667         2.070362         2.697344
 C        -1.205939         1.867900         1.249809
 O        -2.199142        -0.377872         2.666788
 C        -0.872467        -0.494422         2.105856
 H         1.126793         0.700717         0.198865
 H        -1.779963         0.535074        -0.955727
 H        -2.500527        -0.918905         0.084293
 H        -3.545503         1.981431         0.862882
 H        -3.720561         0.927617         2.993001
 H        -2.118001         3.019597         2.774482
 H        -0.897593         2.200980         3.658579
 H        -0.877340         2.755539         0.687258
 H        -0.007757        -0.344758         2.856127
 H        -1.002642        -1.536971         1.906288
