19
Iteration:   343
 O         0.472144         0.101675         0.166043
 C        -0.799531         0.406512         0.856423
 C        -2.044654         0.290998         0.073366
 C        -2.774577         1.446429         0.914850
 C        -2.710127         0.988160         2.484074
 C        -1.438478         1.933432         2.718862
 C        -1.164847         1.825060         1.288183
 O        -2.151558        -0.310391         2.705379
 C        -0.949855        -0.605547         2.008986
 H         1.006186         0.930126         0.263672
 H        -1.947839         0.614090        -0.961051
 H        -2.490726        -0.839924        -0.071580
 H        -3.541797         2.079899         0.622408
 H        -3.663330         1.000073         3.107026
 H        -1.765200         2.944762         2.968561
 H        -0.736737         1.469542         3.502403
 H        -0.540758         2.620398         0.903277
 H         0.094575        -0.403347         2.527127
 H        -0.862101        -1.613484         1.618127
