19
Iteration:  3496charge 0 multiplicity 1
 O         0.554773         0.211085         0.238438
 C        -0.841091         0.301621         0.725859
 C        -2.151485         0.139686         0.048449
 C        -2.689984         1.280510         0.949776
 C        -2.654658         1.015124         2.566167
 C        -1.573733         2.092931         2.693280
 C        -1.249481         1.809509         1.191246
 O        -2.052470        -0.281883         2.782044
 C        -0.874723        -0.497126         2.052251
 H         0.636761        -0.592051        -0.334292
 H        -2.072534         0.501304        -0.997375
 H        -2.767942        -0.791682        -0.128787
 H        -3.300410         2.071981         0.529471
 H        -3.606896         1.081016         3.005317
 H        -1.877726         3.094774         2.789987
 H        -0.845422         2.103218         3.458536
 H        -0.787450         2.562593         0.593796
 H        -0.077086        -0.181899         2.717456
 H        -0.809298        -1.534863         1.882478
