19
Iteration:  1878charge 0 multiplicity 1
 O         0.458469         0.039170         0.122778
 C        -0.750574         0.387671         0.836895
 C        -2.141732         0.293942         0.037749
 C        -2.613096         1.374785         0.951681
 C        -2.719853         0.898988         2.481566
 C        -1.569250         2.073171         2.727073
 C        -1.132895         1.818371         1.232029
 O        -2.117842        -0.309821         2.781550
 C        -0.874012        -0.491135         2.068978
 H         0.170342         0.435941        -0.692390
 H        -2.077775         0.608696        -1.010410
 H        -2.611045        -0.684370         0.095131
 H        -3.358401         2.088404         0.784640
 H        -3.716828         0.764152         2.856341
 H        -1.965619         3.103188         3.002500
 H        -0.925686         1.762169         3.562940
 H        -0.598787         2.648717         0.684257
 H         0.065604        -0.238955         2.800931
 H        -0.708791        -1.545731         1.978256
