19
Iteration:  3949
 O         0.346739         0.109847         0.116245
 C        -0.778148         0.372032         0.838368
 C        -2.136717         0.150202         0.061630
 C        -2.736448         1.296228         0.939610
 C        -2.658157         0.914657         2.454365
 C        -1.565221         2.071598         2.637402
 C        -1.270331         1.942556         1.120629
 O        -2.006677        -0.346498         2.759754
 C        -0.716321        -0.338736         2.276008
 H         0.679320        -0.782195         0.255283
 H        -1.761072         0.351765        -0.964473
 H        -2.737893        -0.694246         0.145475
 H        -3.633464         1.626569         0.437110
 H        -3.565962         1.031423         3.043883
 H        -1.866002         2.989421         3.021107
 H        -0.878371         1.847451         3.415151
 H        -0.751560         2.689454         0.414610
 H         0.015080         0.133871         2.896969
 H        -0.503932        -1.419496         1.941603
