19
Iteration:  1932charge 0 multiplicity 1
 O         0.420570         0.078500         0.212251
 C        -0.776993         0.444943         0.820045
 C        -2.186087         0.210382         0.115356
 C        -2.579853         1.383682         0.954788
 C        -2.619585         0.967790         2.476777
 C        -1.467218         2.000491         2.656298
 C        -1.190259         1.890914         1.204005
 O        -2.232357        -0.398980         2.682755
 C        -0.794482        -0.536947         2.109354
 H         0.503111         0.763923        -0.456210
 H        -2.032151         0.583596        -0.888229
 H        -2.746960        -0.700939         0.184662
 H        -3.334609         2.057979         0.703622
 H        -3.516360         1.036068         3.035529
 H        -2.137789         2.953032         2.803795
 H        -0.920635         1.852384         3.589947
 H        -0.919615         2.783548         0.644181
 H         0.109415        -0.132084         2.785629
 H        -0.539598        -1.529436         1.799463
