19
Iteration:   627
 O         0.438457         0.195378         0.173425
 C        -0.803943         0.292476         0.829475
 C        -2.155788         0.204807         0.088571
 C        -2.612681         1.422698         0.912220
 C        -2.609129         0.971520         2.458818
 C        -1.418377         2.025226         2.782660
 C        -1.091917         1.939451         1.268384
 O        -2.249467        -0.416129         2.625068
 C        -0.944544        -0.570682         2.097806
 H         0.662044         1.073735        -0.128724
 H        -2.131230         0.445052        -0.926777
 H        -2.791489        -0.725367         0.115736
 H        -3.506915         1.914284         0.570730
 H        -3.595885         1.090294         3.047750
 H        -1.941512         2.977946         2.892733
 H        -0.587299         1.649179         3.482842
 H        -0.458973         2.629547         0.694428
 H        -0.123058        -0.408787         2.859633
 H        -0.812232        -1.658113         1.918785
