19
Iteration:  3760
 O         0.464234         0.197759         0.205208
 C        -0.806156         0.365375         0.844059
 C        -2.176136         0.041722         0.079216
 C        -2.705204         1.251449         1.000825
 C        -2.573684         1.007436         2.518370
 C        -1.491234         2.125841         2.572200
 C        -1.234664         1.825262         1.121111
 O        -2.131434        -0.364692         2.771495
 C        -0.826194        -0.454550         2.115075
 H         0.783803         1.080921        -0.079165
 H        -1.967400         0.354701        -1.020350
 H        -2.618543        -0.954989         0.162711
 H        -3.498966         1.898454         0.575018
 H        -3.548091         1.214231         3.091399
 H        -1.997362         3.028956         2.954987
 H        -0.710494         2.054470         3.344937
 H        -0.978343         2.632636         0.364630
 H        -0.030446        -0.089757         2.679994
 H        -0.895585        -1.620904         1.853421
