19
Iteration:  2279charge 0 multiplicity 1
 O         0.436419         0.135605         0.194020
 C        -0.791432         0.395835         0.865771
 C        -2.141798         0.120568         0.084300
 C        -2.653719         1.323661         0.919199
 C        -2.660089         1.001120         2.518908
 C        -1.512623         2.040215         2.674945
 C        -1.167788         1.893174         1.200999
 O        -2.160250        -0.290654         2.698523
 C        -0.828354        -0.584351         2.074631
 H         0.553956         0.905229        -0.420105
 H        -1.943126         0.476821        -0.894440
 H        -2.695207        -0.829038         0.168230
 H        -3.429394         2.029808         0.603482
 H        -3.464332         1.273602         3.242074
 H        -1.890650         2.987081         2.889587
 H        -0.685695         1.820345         3.349048
 H        -0.535263         2.629513         0.679224
 H        -0.102825        -0.608795         2.823074
 H        -1.054752        -1.604404         1.775934
