19
Iteration:  2348charge 0 multiplicity 1
 O         0.457589         0.016969         0.235077
 C        -0.804005         0.374567         0.805089
 C        -2.161482         0.219333        -0.005722
 C        -2.670551         1.355509         0.963692
 C        -2.599769         0.952054         2.497407
 C        -1.537884         2.124842         2.757223
 C        -1.174894         1.961078         1.221749
 O        -2.145258        -0.335347         2.757045
 C        -0.810559        -0.528282         2.050472
 H         0.432191         0.203201        -0.724872
 H        -1.892849         0.736109        -1.021042
 H        -2.581978        -0.816430         0.083292
 H        -3.576291         1.908243         0.649052
 H        -3.659356         0.848703         2.871373
 H        -2.120542         3.003312         3.029220
 H        -0.760866         1.794081         3.406849
 H        -0.664289         2.701444         0.567060
 H        -0.001795        -0.312511         2.733535
 H        -0.955729        -1.597390         1.622991
