19
Iteration:  4353
 O         0.414759         0.153052         0.011758
 C        -0.786609         0.375242         0.815514
 C        -2.152632         0.005031         0.136170
 C        -2.649453         1.260949         0.983919
 C        -2.655788         0.977174         2.563382
 C        -1.603022         2.096323         2.614106
 C        -1.237608         1.906400         1.156111
 O        -2.100777        -0.303439         2.763841
 C        -0.735679        -0.385146         2.160527
 H         1.095187        -0.254130         0.571611
 H        -2.275647         0.334442        -0.912497
 H        -2.388900        -1.047194         0.248014
 H        -3.544567         1.865692         0.656380
 H        -3.651382         1.102983         3.049474
 H        -1.994620         3.094872         2.416020
 H        -0.920725         2.305094         3.459591
 H        -0.834934         2.610552         0.399778
 H         0.153823        -0.096138         2.840047
 H        -0.711328        -1.455187         2.259895
