19
Iteration:  2391
 O         0.499850         0.256385         0.287383
 C        -0.811158         0.277213         0.857365
 C        -2.176121         0.188175        -0.084511
 C        -2.633972         1.289795         0.929491
 C        -2.590407         1.036178         2.496231
 C        -1.465979         2.115248         2.688433
 C        -1.233282         1.845170         1.212785
 O        -2.129074        -0.304368         2.822612
 C        -0.953569        -0.690535         2.057926
 H         0.425519         0.356315        -0.671427
 H        -2.054968         0.865428        -1.014659
 H        -2.800287        -0.739348        -0.287293
 H        -3.554036         1.879763         0.791321
 H        -3.479829         1.311644         3.191069
 H        -1.702790         3.156460         2.853839
 H        -0.664299         1.807708         3.343569
 H        -0.537750         2.542806         0.696119
 H         0.016500        -0.564658         2.582659
 H        -1.101985        -1.698553         1.436424
