19
Iteration:  4381
 O         0.372930         0.098247         0.096522
 C        -0.840968         0.323783         0.875582
 C        -2.103916         0.115646         0.103251
 C        -2.771302         1.303301         0.907562
 C        -2.667778         0.999489         2.433093
 C        -1.545191         2.102878         2.613292
 C        -1.315088         1.970620         1.172592
 O        -1.970236        -0.420637         2.770042
 C        -0.698680        -0.323418         2.239762
 H         0.642902        -0.778256         0.362506
 H        -1.882735         0.428886        -0.946319
 H        -2.516517        -0.923990         0.205472
 H        -3.737257         1.703198         0.690818
 H        -3.636162         1.062055         2.924148
 H        -1.759863         3.202112         2.522910
 H        -0.744598         1.981389         3.352493
 H        -1.008339         2.693329         0.448842
 H         0.099242         0.206744         2.737015
 H        -0.482606        -1.438629         2.254549
