19
Iteration:  4534
 O         0.340079         0.150552        -0.003690
 C        -0.767662         0.325422         0.849347
 C        -2.106453         0.094043         0.089973
 C        -2.633851         1.234261         0.916287
 C        -2.646201         0.964879         2.518164
 C        -1.619114         2.173364         2.590191
 C        -1.277590         1.896017         1.194899
 O        -2.057621        -0.251721         2.845907
 C        -0.728305        -0.522520         2.152463
 H         1.094910         0.572820         0.459709
 H        -2.026251         0.073722        -0.989633
 H        -2.570829        -0.832108         0.416576
 H        -3.526674         1.764924         0.613050
 H        -3.649306         1.089342         2.973589
 H        -2.236314         3.074730         2.896422
 H        -0.892666         2.070110         3.377175
 H        -0.686010         2.535843         0.591044
 H         0.026797        -0.274930         2.985070
 H        -0.602244        -1.554563         2.018786
