19
Iteration:  3287charge 0 multiplicity 1
 O         0.436793         0.040515         0.067803
 C        -0.711299         0.391562         0.830325
 C        -2.093919         0.242873         0.087318
 C        -2.622211         1.346525         1.004873
 C        -2.674405         0.983626         2.532702
 C        -1.518725         2.072788         2.700126
 C        -1.210899         1.900154         1.223363
 O        -2.194826        -0.401213         2.652804
 C        -0.883312        -0.503651         2.103297
 H         1.160449         0.664460         0.226424
 H        -1.801666         0.542161        -0.911170
 H        -2.460200        -0.829554         0.169216
 H        -3.563350         1.980057         0.838973
 H        -3.690114         0.930093         2.976201
 H        -2.092848         3.028493         2.822892
 H        -0.921782         2.220870         3.654734
 H        -0.898678         2.805068         0.683515
 H         0.037065        -0.357404         2.830499
 H        -0.962212        -1.543171         1.947040
