19
Iteration:  4038
 O         0.427782         0.259586         0.244154
 C        -0.858215         0.305457         0.794609
 C        -2.096573         0.085173        -0.007933
 C        -2.720868         1.241253         0.969070
 C        -2.577104         0.992802         2.466164
 C        -1.437517         2.087969         2.580348
 C        -1.362643         1.847852         1.103737
 O        -2.041919        -0.297296         2.921600
 C        -0.810616        -0.437420         2.112208
 H         0.426390        -0.515207        -0.329207
 H        -2.003967         0.489963        -0.994900
 H        -2.563863        -0.911639        -0.117580
 H        -3.616026         1.866968         0.661945
 H        -3.514209         1.065622         3.025679
 H        -1.966401         2.984562         2.837598
 H        -0.593019         2.024193         3.263608
 H        -0.965383         2.674001         0.427695
 H         0.030988        -0.133440         2.853835
 H        -0.939244        -1.527435         2.070350
