19
Iteration:  1326charge 0 multiplicity 1
 O         0.429030         0.110353         0.144487
 C        -0.762203         0.346730         0.910334
 C        -2.183780         0.192497         0.062595
 C        -2.597932         1.377023         0.920409
 C        -2.596518         1.028639         2.426575
 C        -1.595849         2.052100         2.757693
 C        -1.167834         1.899113         1.248622
 O        -2.128076        -0.360290         2.654211
 C        -0.796276        -0.546130         2.155603
 H         0.067024         0.190593        -0.750147
 H        -2.222965         0.492181        -1.071600
 H        -2.806176        -0.776715         0.236236
 H        -3.393174         2.122679         0.525390
 H        -3.534222         0.968058         3.002528
 H        -2.236798         2.933005         2.992528
 H        -0.866576         1.982209         3.601976
 H        -0.529081         2.706095         0.632550
 H        -0.108535        -0.309377         2.968126
 H        -0.670482        -1.625992         1.863212
