19
Iteration:  4165charge 0 multiplicity 1
 O         0.412990         0.178366         0.321891
 C        -0.829404         0.440147         0.883555
 C        -2.188570         0.117854         0.097423
 C        -2.724753         1.230076         0.953157
 C        -2.536438         1.002572         2.486970
 C        -1.525454         2.088224         2.520266
 C        -1.349929         1.932321         1.025882
 O        -1.964746        -0.403747         2.825001
 C        -0.819049        -0.414561         2.105948
 H         0.341566        -0.559533        -0.330656
 H        -2.293169         0.371582        -1.035305
 H        -2.397611        -0.875928         0.376298
 H        -3.553822         1.847580         0.623423
 H        -3.398685         1.045562         3.177218
 H        -2.020885         3.046801         2.868585
 H        -0.510779         1.986392         3.025638
 H        -0.920185         2.562838         0.216759
 H         0.033543        -0.241899         2.811861
 H        -0.663426        -1.446436         1.609277
