19
Iteration:  1555charge 0 multiplicity 1
 O         0.549678         0.265878         0.360197
 C        -0.867238         0.296741         0.817132
 C        -2.167366         0.224851        -0.028689
 C        -2.738990         1.267737         0.965482
 C        -2.602271         1.010905         2.516888
 C        -1.459581         2.118913         2.624106
 C        -1.206350         1.767142         1.147930
 O        -2.091842        -0.317347         2.811997
 C        -0.985850        -0.629608         1.990074
 H         0.473685         0.620342        -0.546604
 H        -2.027061         0.886352        -0.865522
 H        -2.611232        -0.735337        -0.232641
 H        -3.335581         2.190460         0.696808
 H        -3.449999         1.054866         3.172202
 H        -1.645581         3.211360         3.045607
 H        -0.583761         1.678074         3.327041
 H        -0.671162         2.345960         0.405784
 H         0.017538        -0.544196         2.712949
 H        -1.058490        -1.680607         1.705774
