19
Iteration:  2022charge 0 multiplicity 1
 O         0.436599        -0.019927         0.151715
 C        -0.806464         0.349898         0.856826
 C        -2.161699         0.250815         0.087212
 C        -2.684800         1.353313         0.982046
 C        -2.622819         0.978843         2.520947
 C        -1.612276         2.058213         2.737766
 C        -1.150879         1.860593         1.235273
 O        -2.080658        -0.341044         2.607372
 C        -0.841492        -0.438895         2.074419
 H         0.599555         0.645153        -0.566238
 H        -1.958466         0.748283        -0.868976
 H        -2.496306        -0.755322        -0.018516
 H        -3.496374         2.006399         0.711021
 H        -3.540677         0.935053         3.037092
 H        -1.930494         3.143445         2.851688
 H        -1.052089         1.884601         3.702063
 H        -0.514457         2.661839         0.776587
 H         0.010042        -0.088763         2.744707
 H        -0.649215        -1.483882         2.109315
