19
Iteration:  2546charge 0 multiplicity 1
 O         0.441139         0.162643         0.328416
 C        -0.822251         0.408941         0.870341
 C        -2.175725         0.250069        -0.010143
 C        -2.680819         1.386132         0.884289
 C        -2.614152         0.976522         2.598072
 C        -1.369249         2.035554         2.678829
 C        -1.267567         1.884081         1.104554
 O        -2.180194        -0.438757         2.692115
 C        -0.826513        -0.523073         2.113407
 H         0.540817         0.187073        -0.622882
 H        -2.263495         0.450646        -1.098010
 H        -2.633822        -0.717389         0.214405
 H        -3.519463         1.878593         0.425282
 H        -3.584095         1.148721         2.977021
 H        -1.799294         2.961688         3.037610
 H        -0.593845         1.824423         3.321588
 H        -0.627672         2.566651         0.512504
 H         0.002255        -0.366507         2.799399
 H        -0.521396        -1.648953         1.802097
