19
Iteration:  4847
 O         0.487305         0.194989         0.185529
 C        -0.830920         0.326998         0.802626
 C        -2.162617         0.014074         0.045696
 C        -2.715637         1.228598         0.962458
 C        -2.574787         1.043122         2.582269
 C        -1.513800         2.127651         2.625203
 C        -1.296226         1.833519         1.169823
 O        -2.060474        -0.221344         2.795849
 C        -0.864889        -0.510695         2.042123
 H         1.249734         0.680145         0.559801
 H        -2.134636         0.177020        -0.998300
 H        -2.629061        -1.010358         0.089395
 H        -3.554132         1.801593         0.667855
 H        -3.410172         1.036526         3.157545
 H        -2.085812         3.043240         2.674942
 H        -0.695910         2.097460         3.383671
 H        -0.970700         2.547364         0.379768
 H        -0.027481        -0.367693         2.728987
 H        -0.960804        -1.455133         1.455878
