19
Iteration:  4298charge 0 multiplicity 1
 O         0.409630         0.164510         0.169394
 C        -0.843758         0.373811         0.867847
 C        -2.116224         0.128972         0.082369
 C        -2.729286         1.182876         0.912260
 C        -2.541313         0.964733         2.525362
 C        -1.506847         2.128871         2.551328
 C        -1.293952         1.841875         1.068099
 O        -2.071658        -0.311705         2.921556
 C        -0.829867        -0.467944         2.107526
 H         0.859660         1.006730        -0.078851
 H        -2.067179         0.535814        -0.962387
 H        -2.455347        -0.888435         0.012419
 H        -3.650991         1.742221         0.626619
 H        -3.446716         1.127961         3.151693
 H        -1.922594         3.128355         2.763182
 H        -0.646733         1.964489         3.248294
 H        -0.807993         2.416181         0.236689
 H        -0.008295        -0.097754         2.761495
 H        -0.825640        -1.538863         1.976318
