19
Iteration:  4000charge 0 multiplicity 1
 O         0.526363         0.331792         0.120559
 C        -0.812302         0.326399         0.799314
 C        -2.167750         0.008728         0.152374
 C        -2.656709         1.270475         0.992867
 C        -2.609742         1.011658         2.511577
 C        -1.589500         2.156840         2.590140
 C        -1.274227         1.794358         1.174232
 O        -2.077339        -0.243373         2.826728
 C        -0.867269        -0.589430         2.092174
 H         0.820704        -0.554201        -0.187636
 H        -2.267197         0.286101        -0.938819
 H        -2.468638        -1.003570         0.445328
 H        -3.436210         1.850403         0.539689
 H        -3.534877         1.193290         3.070388
 H        -2.069971         3.210679         2.573190
 H        -0.747996         2.219058         3.338672
 H        -0.864146         2.480602         0.473501
 H         0.117994        -0.434998         2.689245
 H        -0.898997        -1.515286         1.654271
