19
Iteration:  4896charge 0 multiplicity 1
 O         0.349579         0.182581         0.066809
 C        -0.806813         0.305913         0.791584
 C        -2.114073         0.149687         0.020948
 C        -2.672776         1.200725         0.875642
 C        -2.622990         1.053325         2.588460
 C        -1.589847         2.163747         2.658079
 C        -1.226938         1.809014         1.185250
 O        -2.046290        -0.291412         2.836588
 C        -0.768866        -0.506131         2.173560
 H         1.071002        -0.221571         0.577901
 H        -2.002230         0.538228        -1.047637
 H        -2.290606        -0.888146        -0.225317
 H        -3.521059         1.908664         0.619099
 H        -3.643677         1.126311         3.201413
 H        -2.234818         3.072515         2.736502
 H        -0.927603         2.118876         3.520589
 H        -0.891320         2.564133         0.475666
 H         0.083735        -0.049929         2.765283
 H        -0.767123        -1.656431         1.959290
