19
Iteration:  2614charge 0 multiplicity 1
 O         0.378772         0.072041         0.097770
 C        -0.793292         0.340144         0.832023
 C        -2.126041         0.240007         0.129016
 C        -2.571318         1.341365         0.898485
 C        -2.661491         0.966302         2.470565
 C        -1.639753         2.083531         2.767576
 C        -1.141852         1.906958         1.238354
 O        -2.110728        -0.304430         2.730886
 C        -0.798671        -0.580245         2.086528
 H         0.756843         0.959525        -0.093021
 H        -1.915628         0.483128        -0.950075
 H        -2.619985        -0.746343         0.259111
 H        -3.468318         1.937727         0.637722
 H        -3.591871         1.055053         3.014500
 H        -2.094377         3.063324         2.796296
 H        -0.912949         2.036024         3.554152
 H        -0.668086         2.653285         0.566006
 H         0.081699        -0.736518         2.677317
 H        -0.964301        -1.682435         1.769707
