19
Iteration:  1420charge 0 multiplicity 1
 O         0.569635         0.109887         0.382724
 C        -0.817155         0.334916         0.783877
 C        -2.129724         0.212244        -0.036041
 C        -2.658821         1.328010         1.006207
 C        -2.609005         0.960871         2.514213
 C        -1.510951         2.099495         2.669039
 C        -1.305966         1.878489         1.186886
 O        -2.056209        -0.279344         2.795960
 C        -0.984219        -0.605581         1.914910
 H         0.547361         0.518431        -0.483833
 H        -2.372923         0.676861        -0.942508
 H        -2.491610        -0.765672        -0.147026
 H        -3.528355         1.838904         0.787574
 H        -3.511281         1.122981         3.144787
 H        -1.890292         3.095032         2.979717
 H        -0.613914         2.221489         3.267979
 H        -1.013464         2.613612         0.531392
 H         0.047447        -0.514567         2.507265
 H        -1.087686        -1.715362         1.599529
