19
Iteration:   126charge 0 multiplicity 1
 O         0.429590         0.212774         0.055470
 C        -0.780975         0.306622         0.836969
 C        -2.145440         0.327297         0.033526
 C        -2.541053         1.455087         0.983609
 C        -2.602833         0.935750         2.449865
 C        -1.525233         1.949512         2.818131
 C        -1.103051         1.935776         1.314466
 O        -2.259746        -0.446576         2.610863
 C        -0.892416        -0.562933         2.125311
 H         0.684790        -0.712516         0.072855
 H        -1.998704         0.740143        -0.938551
 H        -2.783606        -0.539316        -0.136621
 H        -3.393002         2.252972         0.800292
 H        -3.547045         1.048520         3.041133
 H        -1.996610         2.909464         3.125571
 H        -0.827437         1.747077         3.640960
 H        -0.683729         2.802915         0.736451
 H        -0.223532        -0.114620         2.799788
 H        -0.754493        -1.673928         2.006164
