19
Iteration:  3351
 O         0.583643         0.305562         0.075033
 C        -0.819172         0.289258         0.838154
 C        -2.136116         0.218952        -0.031339
 C        -2.667698         1.276944         0.963973
 C        -2.682254         0.968156         2.541509
 C        -1.511842         2.050552         2.749055
 C        -1.202533         1.791573         1.213510
 O        -2.202723        -0.280433         2.840352
 C        -0.891075        -0.546052         2.095028
 H         0.902411        -0.609978        -0.143332
 H        -1.900789         0.495427        -1.094781
 H        -2.746958        -0.864263        -0.241647
 H        -3.462541         2.026163         0.669243
 H        -3.738483         1.132541         2.937341
 H        -1.911202         3.090494         2.699823
 H        -0.590061         1.924444         3.437821
 H        -0.592362         2.574697         0.719499
 H        -0.006270        -0.292759         2.657316
 H        -1.018141        -1.578392         1.841219
