19
Iteration:  2205
 O         0.404079         0.086539         0.170376
 C        -0.777736         0.365387         0.848709
 C        -2.095460         0.136390         0.102335
 C        -2.604673         1.403862         0.940619
 C        -2.686424         0.979448         2.507932
 C        -1.533235         2.076706         2.722663
 C        -1.187819         1.890315         1.161244
 O        -2.116647        -0.320964         2.696861
 C        -0.839695        -0.535895         2.128519
 H         0.314526         0.631744        -0.614843
 H        -2.107026         0.578682        -0.953234
 H        -2.649919        -0.818334         0.025761
 H        -3.383985         2.050631         0.634690
 H        -3.728013         0.929756         2.777142
 H        -1.808469         3.056419         3.091237
 H        -0.719830         1.777973         3.365407
 H        -0.778595         2.707895         0.584760
 H        -0.180508        -0.480629         3.057722
 H        -0.750832        -1.595327         1.776092
