19
Iteration:   177
 O         0.572943         0.306123         0.253620
 C        -0.750310         0.399400         0.798627
 C        -2.244347         0.288983        -0.039727
 C        -2.704218         1.335862         0.941101
 C        -2.644953         1.024372         2.488340
 C        -1.393405         1.913343         2.824869
 C        -1.161428         1.858505         1.215319
 O        -2.170058        -0.334445         2.747732
 C        -0.982839        -0.632891         1.942565
 H         0.738749        -0.612926         0.471976
 H        -2.292385         0.678182        -1.038421
 H        -2.772123        -0.757763        -0.240080
 H        -3.523956         1.952492         0.729904
 H        -3.650330         1.107532         3.008351
 H        -1.562177         2.869742         3.255392
 H        -0.683351         1.373878         3.481501
 H        -0.644756         2.653034         0.749500
 H        -0.122021        -0.698450         2.703827
 H        -1.248548        -1.465612         1.364822
