19
Iteration:  2479
 O         0.341490         0.070310         0.147765
 C        -0.791548         0.349189         0.823358
 C        -2.077135         0.283769         0.007513
 C        -2.635834         1.396397         0.919745
 C        -2.635691         0.962081         2.407568
 C        -1.585283         2.038014         2.731940
 C        -1.134675         1.851816         1.208007
 O        -2.122903        -0.347536         2.826029
 C        -0.805430        -0.536467         2.127491
 H         0.716932         0.887432        -0.233763
 H        -2.214921         0.621430        -1.037060
 H        -2.670018        -0.634080         0.046901
 H        -3.520418         1.987199         0.686870
 H        -3.529984         0.783166         3.069242
 H        -2.030570         3.021239         2.779347
 H        -0.902389         2.029544         3.537084
 H        -0.510390         2.569430         0.623719
 H         0.004661        -0.345962         2.875163
 H        -0.751087        -1.741838         1.926941
