19
Iteration:  2463charge 0 multiplicity 1
 O         0.375654        -0.044836         0.059456
 C        -0.792617         0.397322         0.872716
 C        -2.136504         0.231432         0.066009
 C        -2.637763         1.402518         0.924867
 C        -2.682127         0.969118         2.528629
 C        -1.594706         2.062213         2.709964
 C        -1.135595         1.873966         1.293900
 O        -2.102768        -0.400932         2.676767
 C        -0.795949        -0.445518         2.146235
 H         0.871810         0.757248        -0.224651
 H        -1.796333         0.515646        -0.910341
 H        -2.679627        -0.737089         0.064003
 H        -3.348579         2.114091         0.447131
 H        -3.669607         1.184909         2.970010
 H        -2.098302         3.056135         2.819587
 H        -0.912429         1.844047         3.624143
 H        -0.662222         2.722609         0.788892
 H        -0.076356         0.051553         2.805180
 H        -0.591671        -1.399009         1.887737
