19
Iteration:  4109charge 0 multiplicity 1
 O         0.326572         0.310541         0.003063
 C        -0.799237         0.276623         0.889404
 C        -2.155720         0.036074         0.189399
 C        -2.650462         1.309304         0.882164
 C        -2.676525         1.001614         2.415726
 C        -1.571472         2.058249         2.629516
 C        -1.185562         1.859126         1.210627
 O        -2.066541        -0.266101         2.869822
 C        -0.746327        -0.487843         2.154672
 H         0.782516        -0.534807        -0.031115
 H        -1.876693        -0.020296        -0.906882
 H        -2.578359        -0.954289         0.339307
 H        -3.434106         1.942819         0.503923
 H        -3.654241         0.959875         2.917827
 H        -1.957465         3.114015         2.539007
 H        -0.779233         2.118651         3.405473
 H        -0.667496         2.583218         0.627482
 H         0.035012        -0.080141         2.852133
 H        -0.509522        -1.582055         1.890683
