19
Iteration:  3943
 O         0.417211         0.091762         0.105764
 C        -0.869855         0.385438         0.846341
 C        -2.125861         0.132486         0.069646
 C        -2.708394         1.288152         0.936887
 C        -2.655208         0.960703         2.446998
 C        -1.587603         2.084660         2.682210
 C        -1.249292         1.948445         1.102238
 O        -2.031254        -0.356616         2.785341
 C        -0.702956        -0.348904         2.228788
 H         0.784070        -0.815088         0.109143
 H        -2.022402         0.375906        -1.003751
 H        -2.635609        -0.933204         0.003265
 H        -3.735048         1.678651         0.640732
 H        -3.570811         1.005624         3.053928
 H        -2.013055         3.152136         2.873036
 H        -0.816779         1.886797         3.499715
 H        -0.874053         2.781654         0.541363
 H         0.114775         0.009464         2.931328
 H        -0.512735        -1.426014         1.895771
