19
Iteration:   613
 O         0.510907         0.241157         0.201657
 C        -0.797947         0.331308         0.857528
 C        -2.170349         0.315325         0.005449
 C        -2.615435         1.376400         0.967593
 C        -2.593862         0.938371         2.483418
 C        -1.340673         2.011904         2.659553
 C        -1.218808         1.768328         1.213550
 O        -2.309677        -0.408547         2.715463
 C        -0.947814        -0.629542         2.098232
 H         0.728152         1.194602         0.018062
 H        -1.877343         0.717967        -1.012264
 H        -2.710110        -0.654108         0.128524
 H        -3.368802         2.244093         0.775086
 H        -3.567646         1.192180         3.067715
 H        -1.814001         2.910693         2.913687
 H        -0.446404         1.989905         3.236542
 H        -0.705467         2.556917         0.653834
 H        -0.275699        -0.221573         2.858383
 H        -0.865463        -1.723636         1.823087
