19
Iteration:   889charge 0 multiplicity 1
 O         0.505022         0.216507         0.253662
 C        -0.720127         0.389364         0.894956
 C        -2.137418         0.283424         0.079429
 C        -2.641652         1.398347         0.983596
 C        -2.667449         0.985318         2.483170
 C        -1.429816         1.934945         2.738042
 C        -1.217008         1.833498         1.230095
 O        -2.204302        -0.346518         2.622434
 C        -0.916813        -0.552712         1.984186
 H         0.211029        -0.207560        -0.587148
 H        -2.160779         0.556545        -0.960334
 H        -2.603887        -0.766304         0.073863
 H        -3.518935         2.154197         0.824207
 H        -3.666605         0.975243         3.053256
 H        -1.608674         2.910957         2.968892
 H        -0.719340         1.437369         3.320762
 H        -0.771436         2.693553         0.734545
 H        -0.155537        -0.394523         2.706672
 H        -0.946942        -1.653422         1.690408
