19
Iteration:  3589charge 0 multiplicity 1
 O         0.419859         0.173926         0.165023
 C        -0.874985         0.306100         0.854554
 C        -2.137161         0.149404         0.007819
 C        -2.653824         1.339876         0.934660
 C        -2.634705         0.989212         2.462935
 C        -1.567460         2.137214         2.581556
 C        -1.221036         1.774246         1.158539
 O        -2.064865        -0.286707         2.868124
 C        -0.791602        -0.569295         2.145404
 H         0.938017         0.995809         0.177554
 H        -1.922155         0.273958        -1.085470
 H        -2.673486        -0.797104         0.035308
 H        -3.544125         1.958534         0.727630
 H        -3.584345         0.871760         3.060030
 H        -2.031411         3.161280         2.763673
 H        -0.844057         1.958250         3.442035
 H        -0.654925         2.621813         0.686798
 H         0.076882        -0.272085         2.591277
 H        -0.769720        -1.606752         1.888606
