19
Iteration:  4090charge 0 multiplicity 1
 O         0.299916         0.208740         0.059565
 C        -0.810169         0.376847         0.906563
 C        -2.159166         0.058724         0.193146
 C        -2.624889         1.302573         0.877936
 C        -2.593704         0.993116         2.463496
 C        -1.667854         2.155232         2.679088
 C        -1.186438         1.871935         1.121186
 O        -2.012498        -0.326429         2.712676
 C        -0.696480        -0.459614         2.179547
 H         0.465822        -0.728803         0.176235
 H        -2.043609         0.099612        -0.962816
 H        -2.648183        -0.810646         0.594199
 H        -3.490143         1.793403         0.408033
 H        -3.525810         0.868378         3.047660
 H        -2.074212         3.187617         2.922782
 H        -0.983733         1.930600         3.582546
 H        -0.639983         2.542230         0.355330
 H         0.019488        -0.215967         3.029433
 H        -0.709276        -1.473279         1.992691
