19
Iteration:  4874
 O         0.406618         0.245795         0.104276
 C        -0.799195         0.312456         0.856918
 C        -2.085174         0.163608         0.102604
 C        -2.700072         1.264168         0.938416
 C        -2.670185         0.937144         2.481919
 C        -1.553009         2.136344         2.552325
 C        -1.233721         1.877849         1.119175
 O        -1.989766        -0.226230         2.958953
 C        -0.893272        -0.598376         2.083132
 H         1.234893         0.207482         0.616181
 H        -1.951207         0.272037        -1.031620
 H        -2.574142        -0.833954         0.158992
 H        -3.739404         1.702016         0.665093
 H        -3.750454         0.805087         2.960706
 H        -2.017121         3.144215         2.729297
 H        -0.738424         1.888259         3.229238
 H        -0.775579         2.466105         0.339451
 H         0.038325        -0.573472         2.733368
 H        -1.076368        -1.613136         1.540052
