19
Iteration:  1785charge 0 multiplicity 1
 O         0.384154         0.056630         0.159127
 C        -0.807503         0.356458         0.850243
 C        -2.131753         0.203452         0.117300
 C        -2.652517         1.397027         0.950881
 C        -2.630768         0.965968         2.448600
 C        -1.589953         2.045775         2.720809
 C        -1.154833         1.884226         1.266076
 O        -2.103516        -0.324851         2.675621
 C        -0.792071        -0.540656         2.100639
 H         0.240132         0.502798        -0.718045
 H        -1.962071         0.783138        -0.784370
 H        -2.704475        -0.719033        -0.047729
 H        -3.400811         1.961082         0.340977
 H        -3.587157         1.069317         2.979030
 H        -1.962984         3.096763         2.817930
 H        -0.927910         1.853046         3.617308
 H        -0.551404         2.608791         0.837389
 H         0.116815        -0.122063         2.708327
 H        -0.535516        -1.611370         2.002892
