19
Iteration:  3564charge 0 multiplicity 1
 O         0.530288         0.098494         0.091326
 C        -0.758815         0.364038         0.813813
 C        -2.220461         0.021347         0.167584
 C        -2.587632         1.341681         0.973871
 C        -2.684004         1.014976         2.501204
 C        -1.637334         2.111822         2.698102
 C        -1.184128         1.806735         1.202518
 O        -2.092886        -0.234344         2.717941
 C        -0.867093        -0.495033         2.089339
 H         1.041694         0.876588        -0.211887
 H        -2.371062         0.265849        -0.925629
 H        -2.578246        -1.009902         0.228599
 H        -3.395473         1.892801         0.514250
 H        -3.610811         0.830658         3.132514
 H        -2.128976         3.086567         2.651072
 H        -1.048460         2.107647         3.617604
 H        -0.740878         2.740468         0.734739
 H         0.046662        -0.233450         2.622594
 H        -0.832482        -1.488039         1.891020
