19
Iteration:   423
 O         0.415902         0.147337         0.118314
 C        -0.815622         0.378016         0.795244
 C        -2.043400         0.288603        -0.051842
 C        -2.652639         1.386905         0.887928
 C        -2.637168         0.949851         2.456332
 C        -1.443931         2.001805         2.847765
 C        -1.238537         1.914776         1.280022
 O        -2.148984        -0.316934         2.775115
 C        -0.957397        -0.608183         2.050386
 H         1.062083         0.025094         0.836378
 H        -1.912187         0.667327        -1.132468
 H        -2.550791        -0.676433         0.060334
 H        -3.695952         1.756510         0.589922
 H        -3.531415         1.045747         3.003999
 H        -1.830221         2.963410         3.247738
 H        -0.779432         1.513465         3.484372
 H        -0.536435         2.657802         0.736028
 H         0.024873        -0.435876         2.612317
 H        -0.959035        -1.654389         1.632308
