19
Iteration:  4721
 O         0.477535         0.243483         0.254587
 C        -0.808935         0.407701         0.783281
 C        -2.158370         0.114421         0.028993
 C        -2.756653         1.153244         0.988739
 C        -2.609917         0.994598         2.472528
 C        -1.423335         2.080557         2.571957
 C        -1.392292         1.856304         1.082709
 O        -2.031491        -0.298574         2.817071
 C        -0.867509        -0.447680         2.128650
 H         0.975518        -0.500475         0.669764
 H        -2.079026         0.527898        -0.989195
 H        -2.530561        -0.917313         0.052015
 H        -3.714581         1.728675         0.687794
 H        -3.493165         1.165609         3.196984
 H        -1.733401         3.053691         3.037845
 H        -0.464854         1.845709         3.052328
 H        -1.087462         2.529232         0.291038
 H         0.051390        -0.113342         2.665863
 H        -0.755078        -1.455896         2.067621
