19
Iteration:  3450charge 0 multiplicity 1
 O         0.345613         0.181993         0.069724
 C        -0.778745         0.325950         0.898985
 C        -2.055379         0.143743         0.022123
 C        -2.592466         1.377094         0.922701
 C        -2.650932         0.961021         2.507284
 C        -1.530134         2.125845         2.625232
 C        -1.244210         1.898601         1.179961
 O        -2.149804        -0.337200         2.781967
 C        -0.825411        -0.588385         2.133863
 H         1.107760         0.356506         0.693617
 H        -1.907353         0.346894        -1.034329
 H        -2.607856        -0.845188         0.010816
 H        -3.568603         1.854916         0.700183
 H        -3.443995         1.159165         3.181409
 H        -2.017236         2.927204         3.102222
 H        -0.805224         1.997850         3.389833
 H        -0.760487         2.643588         0.605179
 H        -0.065404        -0.375135         2.890998
 H        -0.839007        -1.622394         1.903801
