19
Iteration:  1783charge 0 multiplicity 1
 O         0.384917         0.048376         0.135147
 C        -0.796210         0.347822         0.864555
 C        -2.140126         0.205441         0.125629
 C        -2.638295         1.390763         0.950349
 C        -2.644839         0.967254         2.455692
 C        -1.606943         2.049014         2.723766
 C        -1.144603         1.894291         1.279269
 O        -2.103987        -0.315079         2.672190
 C        -0.788880        -0.533397         2.102310
 H         0.280026         0.521869        -0.703418
 H        -1.957553         0.769097        -0.836133
 H        -2.695844        -0.702708        -0.097341
 H        -3.389198         1.963825         0.394898
 H        -3.546271         0.966321         3.045600
 H        -2.019856         3.017392         2.741458
 H        -0.940240         1.866619         3.570974
 H        -0.490174         2.650457         0.765588
 H         0.079605        -0.095073         2.781748
 H        -0.594586        -1.665928         1.965111
