19
Iteration:  3602charge 0 multiplicity 1
 O         0.340429         0.160887         0.179046
 C        -0.795630         0.327847         0.896480
 C        -2.110576         0.122079        -0.005394
 C        -2.694500         1.250345         0.866349
 C        -2.580811         0.959565         2.510424
 C        -1.496919         2.093769         2.644473
 C        -1.273335         1.908534         1.134210
 O        -2.047066        -0.300561         2.823499
 C        -0.872234        -0.517294         2.163236
 H         0.843485         0.980582         0.326201
 H        -1.888504         0.726286        -0.848964
 H        -2.482347        -0.888610        -0.268998
 H        -3.535903         1.894185         0.527941
 H        -3.485269         1.177460         3.000266
 H        -1.927656         3.134425         2.756078
 H        -0.564866         1.945456         3.272942
 H        -0.785988         2.466562         0.345103
 H        -0.113792        -0.383777         2.883865
 H        -0.766670        -1.675740         2.012422
