19
Iteration:  1395charge 0 multiplicity 1
 O         0.449205         0.095874         0.313549
 C        -0.825222         0.418246         0.830294
 C        -2.163814         0.255552        -0.025366
 C        -2.712753         1.321886         0.906951
 C        -2.588245         0.955926         2.506678
 C        -1.503627         2.094292         2.616137
 C        -1.195719         1.829701         1.198076
 O        -2.108616        -0.391624         2.841407
 C        -0.861376        -0.562975         2.039810
 H         0.761489         0.860024        -0.163584
 H        -2.107328         0.817396        -1.001617
 H        -2.550437        -0.805718        -0.229984
 H        -3.547151         1.957079         0.619148
 H        -3.365386         1.235944         3.207535
 H        -1.886778         3.127667         2.751984
 H        -0.723650         2.032674         3.383281
 H        -0.898862         2.678701         0.468624
 H         0.051777        -0.408114         2.653183
 H        -0.872082        -1.640688         1.533906
