19
Iteration:  4287charge 0 multiplicity 1
 O         0.487645         0.112480         0.203835
 C        -0.820811         0.372482         0.721855
 C        -2.153091         0.055267         0.000391
 C        -2.693298         1.235669         1.026364
 C        -2.633958         1.006193         2.616777
 C        -1.475509         2.134051         2.594002
 C        -1.331619         1.816664         1.065342
 O        -2.122185        -0.298685         2.842849
 C        -0.755733        -0.422695         2.187864
 H         0.738791         0.887200        -0.362184
 H        -2.091061         0.557976        -1.012703
 H        -2.685588        -0.866971         0.029454
 H        -3.619944         1.671612         0.596061
 H        -3.593160         1.015847         3.182376
 H        -2.120059         3.015889         2.765081
 H        -0.524388         2.127537         3.203961
 H        -1.069338         2.684402         0.368275
 H         0.224742        -0.166646         2.659553
 H        -0.635127        -1.440434         1.842791
