19
Iteration:  3903
 O         0.492663         0.352521         0.181448
 C        -0.743837         0.313723         0.839254
 C        -2.204240         0.004967         0.114285
 C        -2.719051         1.238366         0.946413
 C        -2.582475         1.060154         2.513480
 C        -1.582022         2.167197         2.593451
 C        -1.237152         1.819743         1.129543
 O        -2.072221        -0.289131         2.841115
 C        -0.837917        -0.604885         2.089412
 H         0.424582        -0.460697        -0.342614
 H        -2.135005         0.495710        -0.883174
 H        -2.512703        -0.988994         0.074598
 H        -3.501494         1.917076         0.672672
 H        -3.595930         1.094483         2.958765
 H        -2.029743         3.160063         2.659078
 H        -0.893697         2.225787         3.416949
 H        -0.656402         2.486181         0.475976
 H         0.097514        -0.393537         2.672598
 H        -0.936486        -1.647816         1.792902
