19
Iteration:  1225charge 0 multiplicity 1
 O         0.458758         0.153262         0.051838
 C        -0.767519         0.340858         0.798656
 C        -2.138159         0.164283         0.111563
 C        -2.550934         1.360851         0.951340
 C        -2.646411         1.010409         2.503939
 C        -1.496013         2.084429         2.750654
 C        -1.160521         1.852689         1.280250
 O        -2.266293        -0.443874         2.634821
 C        -0.903851        -0.490516         2.183195
 H         0.653700         0.897156        -0.555364
 H        -2.060005         0.487094        -1.022711
 H        -2.677386        -0.737303         0.360549
 H        -3.341562         2.030323         0.752308
 H        -3.562881         1.085123         3.089893
 H        -1.943459         3.089088         2.854403
 H        -0.759365         1.786441         3.540138
 H        -0.581996         2.556507         0.509642
 H        -0.116902        -0.032473         2.848871
 H        -0.629745        -1.512195         2.236538
