19
Iteration:  1050charge 0 multiplicity 1
 O         0.398762         0.017061         0.108393
 C        -0.766957         0.440300         0.865557
 C        -2.013752         0.335934         0.005858
 C        -2.607759         1.375094         0.968631
 C        -2.705392         0.899617         2.453749
 C        -1.582850         1.991049         2.734073
 C        -1.185956         1.890495         1.268105
 O        -2.096859        -0.299343         2.824506
 C        -0.851887        -0.562711         2.088523
 H         0.242271         0.473215        -0.734884
 H        -1.830398         0.518747        -1.112238
 H        -2.629607        -0.535877        -0.087956
 H        -3.465052         2.027325         0.626149
 H        -3.711517         0.898256         2.977032
 H        -2.175113         3.004136         2.837108
 H        -0.844810         1.846028         3.607277
 H        -0.815644         2.692119         0.619974
 H         0.056853        -0.398669         2.668761
 H        -0.974315        -1.565120         1.629228
