19
Iteration:  3858charge 0 multiplicity 1
 O         0.510894         0.269010         0.146964
 C        -0.809319         0.324929         0.803017
 C        -2.142818         0.071532         0.070673
 C        -2.710986         1.175666         0.974780
 C        -2.650892         1.004617         2.497691
 C        -1.502963         2.053571         2.613564
 C        -1.257185         1.842486         1.154378
 O        -2.142190        -0.282038         2.791237
 C        -0.817527        -0.389050         2.133111
 H         0.590459        -0.679099        -0.086532
 H        -2.122964         0.493421        -0.943844
 H        -2.565963        -0.863147         0.304447
 H        -3.572420         1.714885         0.571552
 H        -3.402209         1.203255         3.303518
 H        -1.837066         3.069150         2.947470
 H        -0.679806         1.959878         3.371789
 H        -0.970547         2.561559         0.393087
 H        -0.041910         0.099822         2.837003
 H        -0.494467        -1.465202         1.883667
