19
Iteration:  3742
 O         0.477877         0.193442         0.344142
 C        -0.865772         0.365075         0.858540
 C        -2.222145         0.106410         0.121664
 C        -2.726268         1.313172         0.848575
 C        -2.571851         0.930454         2.493669
 C        -1.476847         2.095111         2.578295
 C        -1.299058         1.946849         1.100329
 O        -2.055355        -0.370576         2.727963
 C        -0.793478        -0.514614         2.134840
 H         0.533353         0.570327        -0.570821
 H        -2.273515         0.444597        -0.928050
 H        -2.619790        -0.877240         0.435080
 H        -3.636670         1.856997         0.742263
 H        -3.456267         0.990675         3.148586
 H        -1.838689         3.104043         2.683162
 H        -0.580862         2.023763         3.191560
 H        -0.757761         2.473296         0.288941
 H         0.027401        -0.300000         2.943923
 H        -0.588945        -1.478156         1.848274
