19
Iteration:   586
 O         0.495907         0.107394         0.324223
 C        -0.856537         0.364596         0.778979
 C        -2.123094         0.253339        -0.046605
 C        -2.699273         1.298335         0.980428
 C        -2.613076         1.037429         2.541857
 C        -1.408244         1.990897         2.756878
 C        -1.207664         1.844936         1.200052
 O        -2.157192        -0.297139         2.714843
 C        -0.964737        -0.580467         1.928366
 H         0.813563         0.996701         0.057222
 H        -1.951820         0.968358        -0.899050
 H        -2.550864        -0.742570        -0.157661
 H        -3.586368         1.805712         0.661055
 H        -3.461177         1.063866         3.168449
 H        -1.872559         3.035779         2.994265
 H        -0.521373         1.557409         3.335003
 H        -0.587437         2.749717         0.896954
 H        -0.104413        -0.417995         2.587972
 H        -1.025594        -1.610598         1.614978
