19
Iteration:   760
 O         0.412016         0.318955         0.166507
 C        -0.796007         0.296964         0.868899
 C        -2.147718         0.276420         0.044853
 C        -2.611722         1.414906         0.982696
 C        -2.600813         1.013054         2.459230
 C        -1.413168         1.931423         2.760502
 C        -1.177025         1.832605         1.217142
 O        -2.257313        -0.382971         2.576544
 C        -0.890384        -0.593186         2.101070
 H         0.736077        -0.552799         0.396487
 H        -1.860204         0.695483        -0.908488
 H        -2.820606        -0.668209         0.015888
 H        -3.226704         2.169155         0.652112
 H        -3.502122         1.001707         3.119725
 H        -1.746900         2.946663         3.102717
 H        -0.655708         1.755368         3.589636
 H        -0.664313         2.628511         0.634866
 H        -0.181298        -0.476313         3.007107
 H        -0.815047        -1.649503         1.839343
