19
Iteration:  3599
 O         0.352362         0.167544         0.176678
 C        -0.806689         0.323319         0.907751
 C        -2.138602         0.096319        -0.019770
 C        -2.674371         1.299711         0.877147
 C        -2.581574         0.946217         2.500459
 C        -1.515896         2.097690         2.621809
 C        -1.273819         1.899627         1.155038
 O        -2.034282        -0.297579         2.827560
 C        -0.869936        -0.552862         2.168641
 H         0.870084         0.993059         0.280275
 H        -1.850438         0.760157        -0.873773
 H        -2.460585        -0.912623        -0.213827
 H        -3.560647         1.890037         0.581713
 H        -3.594513         1.122983         3.016219
 H        -1.867719         3.165367         2.690221
 H        -0.630084         1.962898         3.304662
 H        -0.693936         2.492360         0.359107
 H        -0.035172        -0.265286         2.786329
 H        -0.837366        -1.570153         2.033612
