19
Iteration:   869
 O         0.543108         0.365602         0.207989
 C        -0.834768         0.372745         0.753503
 C        -2.178114         0.222965         0.028387
 C        -2.645271         1.393621         0.956446
 C        -2.604628         1.028530         2.542552
 C        -1.340161         1.917140         2.770214
 C        -1.132998         1.857367         1.249937
 O        -2.328724        -0.438103         2.635822
 C        -0.985996        -0.587840         2.128843
 H         0.743182        -0.401149        -0.402983
 H        -2.055595         0.525587        -0.994255
 H        -2.555462        -0.887132         0.056103
 H        -3.427212         1.945664         0.472506
 H        -3.417669         1.292636         3.245617
 H        -1.788209         2.847642         3.032114
 H        -0.535933         1.587762         3.392531
 H        -0.640993         2.553895         0.521542
 H        -0.252935        -0.288110         2.819741
 H        -0.739283        -1.577409         1.760826
