19
Iteration:  3996charge 0 multiplicity 1
 O         0.521455         0.311724         0.092716
 C        -0.795921         0.362403         0.819315
 C        -2.179166         0.041826         0.154902
 C        -2.621217         1.204464         0.962408
 C        -2.608974         0.999649         2.547934
 C        -1.615397         2.170218         2.601641
 C        -1.244992         1.771108         1.173321
 O        -2.096695        -0.232010         2.802174
 C        -0.858971        -0.566817         2.093801
 H         0.913908        -0.551424        -0.140147
 H        -2.385392         0.307369        -0.857854
 H        -2.514787        -1.014391         0.469213
 H        -3.467131         1.865490         0.601880
 H        -3.537044         1.141358         3.115419
 H        -2.006120         3.185414         2.697587
 H        -0.778298         2.284427         3.298750
 H        -0.809151         2.507258         0.482544
 H        -0.072504        -0.187326         2.653594
 H        -0.937573        -1.713426         1.684263
