19
Iteration:   650
 O         0.403933         0.002712         0.141269
 C        -0.699782         0.368959         0.843486
 C        -2.064818         0.251542         0.129909
 C        -2.622810         1.447647         0.976732
 C        -2.751322         0.959429         2.451041
 C        -1.546204         1.989237         2.840870
 C        -1.187866         1.815649         1.335602
 O        -2.167520        -0.294760         2.586745
 C        -0.831382        -0.462367         1.996980
 H         0.494190         0.649508        -0.605960
 H        -2.105355         0.414197        -0.908194
 H        -2.647916        -0.688268         0.193903
 H        -3.188005         2.247223         0.589921
 H        -3.754540         1.051264         2.932914
 H        -1.875453         3.081567         2.855521
 H        -0.761961         1.534945         3.570383
 H        -0.675087         2.715069         0.954456
 H        -0.015015        -0.397069         2.779414
 H        -0.702191        -1.497045         1.654782
