19
Iteration:  2342charge 0 multiplicity 1
 O         0.421395         0.013450         0.200846
 C        -0.857675         0.360468         0.824764
 C        -2.094765         0.252848         0.048009
 C        -2.683922         1.390805         0.932592
 C        -2.645398         0.933013         2.475302
 C        -1.544485         2.107636         2.800617
 C        -1.185970         1.918082         1.186532
 O        -2.127663        -0.340395         2.713042
 C        -0.806482        -0.539674         2.110421
 H         0.618199         0.281543        -0.727779
 H        -1.935380         0.465286        -0.967869
 H        -2.602864        -0.706596         0.016047
 H        -3.438977         2.134914         0.624464
 H        -3.612944         0.869573         2.947085
 H        -1.982158         3.115809         3.103449
 H        -0.671166         1.966931         3.532196
 H        -0.669454         2.588499         0.494883
 H         0.119192        -0.177607         2.665830
 H        -0.601078        -1.505559         1.718482
