19
Iteration:  3100
 O         0.440872         0.233722         0.269778
 C        -0.866943         0.363510         0.853548
 C        -2.120093         0.231803        -0.012744
 C        -2.727757         1.381451         0.936140
 C        -2.551444         0.928713         2.430599
 C        -1.431220         1.992170         2.663505
 C        -1.259248         1.887714         1.223833
 O        -2.155562        -0.392660         2.703132
 C        -0.901742        -0.506292         2.084711
 H         0.856327        -0.537559         0.671592
 H        -2.074083         0.517726        -1.017597
 H        -2.558607        -0.709216         0.166692
 H        -3.464666         2.133303         0.564953
 H        -3.394170         1.089705         3.138833
 H        -1.729821         2.892825         3.201768
 H        -0.461328         1.614898         3.144702
 H        -0.755509         2.629216         0.614507
 H        -0.049346         0.026636         2.553993
 H        -0.538075        -1.574359         1.797544
