19
Iteration:   374charge 0 multiplicity 1
 O         0.385539         0.134731        -0.014662
 C        -0.718486         0.375264         0.858893
 C        -2.179803         0.226468        -0.027020
 C        -2.547792         1.421531         0.948665
 C        -2.599691         0.911616         2.475675
 C        -1.507385         2.039753         2.782169
 C        -1.066781         1.865011         1.378121
 O        -2.257095        -0.412930         2.578523
 C        -0.942000        -0.551452         2.246171
 H         0.896967         0.953892         0.157578
 H        -2.071624         0.574680        -1.034738
 H        -2.856680        -0.726210         0.179098
 H        -3.185018         2.224413         0.862291
 H        -3.693647         0.950046         2.865903
 H        -2.177298         2.917240         2.782273
 H        -0.756206         1.920522         3.747607
 H        -0.587047         2.660521         0.900339
 H        -0.195145        -0.040099         2.943140
 H        -0.586812        -1.567456         2.170024
