19
Iteration:   744
 O         0.494611         0.363272         0.214974
 C        -0.801466         0.416970         0.809337
 C        -2.158970         0.201087         0.111920
 C        -2.628520         1.409396         0.944736
 C        -2.631235         1.005036         2.521184
 C        -1.387823         1.926357         2.722893
 C        -1.056795         1.798747         1.269339
 O        -2.308614        -0.397736         2.636975
 C        -0.987743        -0.575411         2.000225
 H         0.972170        -0.462572         0.038532
 H        -2.341819         0.268214        -1.006030
 H        -2.619082        -0.798731         0.212075
 H        -3.617143         1.982405         0.624532
 H        -3.549351         1.336424         3.075799
 H        -1.705203         2.935715         2.944849
 H        -0.708034         1.578894         3.457488
 H        -0.400587         2.479251         0.738436
 H        -0.150886        -0.399269         2.614912
 H        -0.926366        -1.658461         1.672734
