19
Iteration:  3232
 O         0.453659         0.169472         0.240112
 C        -0.767429         0.402431         0.913326
 C        -2.180307         0.241403         0.083468
 C        -2.634459         1.339515         0.869377
 C        -2.620735         1.022994         2.501293
 C        -1.483586         2.023768         2.647382
 C        -1.180187         1.844756         1.190543
 O        -2.146353        -0.401562         2.727566
 C        -0.915717        -0.585085         2.057956
 H         0.597017         0.979059        -0.264849
 H        -2.079709         0.421412        -0.957181
 H        -2.612955        -0.711802         0.110230
 H        -3.405699         2.102418         0.527130
 H        -3.562560         1.107784         3.095283
 H        -2.067965         2.916187         2.897426
 H        -0.746724         1.690762         3.422779
 H        -0.568111         2.557849         0.603091
 H         0.013823        -0.348593         2.698241
 H        -0.991487        -1.598386         1.789886
