19
Iteration:   721
 O         0.549905         0.275251         0.241358
 C        -0.790215         0.388457         0.819309
 C        -2.184590         0.245102         0.022203
 C        -2.577105         1.385132         0.973114
 C        -2.650145         1.020792         2.505729
 C        -1.435449         1.971119         2.801202
 C        -1.201537         1.835654         1.230334
 O        -2.226186        -0.335798         2.672309
 C        -0.939212        -0.649100         2.020774
 H         0.679575        -0.411545        -0.447322
 H        -2.139564         0.494145        -1.069570
 H        -2.681208        -0.715955         0.064684
 H        -3.399901         2.118966         0.666537
 H        -3.576269         1.253679         2.965906
 H        -1.793657         2.953233         3.113758
 H        -0.722305         1.547907         3.479744
 H        -0.931972         2.617725         0.520792
 H        -0.074179        -0.721205         2.635861
 H        -1.095065        -1.639475         1.546306
