19
Iteration:  4070charge 0 multiplicity 1
 O         0.485545         0.135329         0.083031
 C        -0.750617         0.343452         0.808538
 C        -2.140466         0.067638         0.161627
 C        -2.714929         1.284942         1.004405
 C        -2.662654         0.993514         2.505689
 C        -1.557018         2.127794         2.605622
 C        -1.299056         1.832999         1.181155
 O        -2.079598        -0.334769         2.728888
 C        -0.767709        -0.363514         2.138069
 H         0.562660        -0.811019        -0.181608
 H        -2.179900         0.503278        -0.837989
 H        -2.640272        -0.892829         0.307899
 H        -3.555384         1.978262         0.723592
 H        -3.589470         1.101165         3.096203
 H        -2.187118         3.026934         2.711323
 H        -0.789245         2.252876         3.388766
 H        -0.851837         2.737271         0.646069
 H         0.144148         0.198379         2.745555
 H        -0.592583        -1.460662         2.105401
