19
Iteration:   600charge 0 multiplicity 1
 O         0.486496         0.228352         0.276041
 C        -0.801185         0.336419         0.803529
 C        -2.121823         0.280209        -0.036349
 C        -2.675807         1.359907         1.023645
 C        -2.598737         1.005234         2.589985
 C        -1.399248         1.979736         2.660506
 C        -1.151755         1.795115         1.151920
 O        -2.245958        -0.409564         2.703642
 C        -0.982463        -0.581816         2.083603
 H         0.833074         1.092410         0.064238
 H        -2.069367         0.842286        -1.098720
 H        -2.624516        -0.625948        -0.409881
 H        -3.480993         2.131413         0.662905
 H        -3.447826         1.211455         3.229227
 H        -1.596895         3.063211         2.889840
 H        -0.738322         1.699941         3.452716
 H        -0.801526         2.437301         0.295247
 H        -0.115716        -0.535020         2.743190
 H        -0.934977        -1.637865         1.741908
