19
Iteration:  4672
 O         0.324387         0.291003         0.107862
 C        -0.787506         0.302346         0.916816
 C        -2.172060         0.040720         0.156608
 C        -2.635008         1.285909         0.890280
 C        -2.590789         1.005840         2.451405
 C        -1.603685         2.175165         2.604963
 C        -1.228417         1.830261         1.195936
 O        -2.102060        -0.280992         2.753728
 C        -0.670635        -0.518937         2.174508
 H         0.536071        -0.485240        -0.404032
 H        -1.898572         0.309967        -0.905834
 H        -2.523356        -1.046957         0.299662
 H        -3.575386         1.681507         0.655005
 H        -3.560346         0.983874         2.838635
 H        -2.066514         3.150601         2.628217
 H        -1.002161         2.030061         3.531803
 H        -0.627674         2.534936         0.557319
 H         0.113636        -0.199679         2.808623
 H        -0.595081        -1.677756         2.081215
