19
Iteration:  2792charge 0 multiplicity 1
 O         0.580686         0.229600         0.357422
 C        -0.847022         0.317106         0.776216
 C        -2.238960         0.170940         0.044577
 C        -2.679352         1.332252         1.026950
 C        -2.579348         1.037637         2.534966
 C        -1.419964         2.051830         2.671507
 C        -1.204303         1.795157         1.209882
 O        -2.176119        -0.349448         2.688572
 C        -0.935140        -0.586412         1.930546
 H         0.652941         0.966290        -0.262098
 H        -2.208847         0.618716        -1.015399
 H        -2.692496        -0.844266         0.256660
 H        -3.570726         1.944526         0.797011
 H        -3.536671         1.174169         3.095513
 H        -1.740292         3.087706         2.713070
 H        -0.528962         1.832809         3.284261
 H        -0.882038         2.573587         0.541473
 H         0.008790        -0.307629         2.526732
 H        -1.020098        -1.669983         1.560306
