19
Iteration:  4434charge 0 multiplicity 1
 O         0.450249         0.386055         0.148091
 C        -0.775501         0.279138         0.885273
 C        -2.121408         0.004029         0.124819
 C        -2.748179         1.189582         0.894709
 C        -2.572429         1.067108         2.563967
 C        -1.591261         2.245858         2.561782
 C        -1.228357         1.828108         1.130854
 O        -2.098117        -0.277972         2.881599
 C        -0.759901        -0.642341         2.090485
 H         0.409061        -0.320105        -0.492300
 H        -2.123977         0.311612        -0.946036
 H        -2.727929        -0.951527         0.282523
 H        -3.523982         1.768502         0.437355
 H        -3.495988         1.244089         3.105698
 H        -2.030870         3.272156         2.754902
 H        -0.645944         1.999103         3.088694
 H        -0.788754         2.330757         0.241214
 H         0.059237        -0.569700         2.796356
 H        -1.092612        -1.574998         1.805794
