19
Iteration:   541
 O         0.414770         0.094311         0.125753
 C        -0.766558         0.322092         0.862152
 C        -2.074667         0.301196         0.067089
 C        -2.647223         1.399104         0.975064
 C        -2.628596         0.938486         2.456881
 C        -1.572958         2.078576         2.736984
 C        -1.126581         1.837482         1.379539
 O        -2.173313        -0.363899         2.636891
 C        -0.844024        -0.548256         2.071196
 H         0.219875         0.096351        -0.821607
 H        -1.884046         0.832451        -0.885889
 H        -2.646067        -0.646851         0.037678
 H        -3.413629         2.020771         0.649675
 H        -3.562586         1.118010         2.998300
 H        -2.190711         3.054656         2.644513
 H        -0.923342         2.011774         3.717299
 H        -0.517980         2.542669         0.751005
 H        -0.110770        -0.179301         2.804568
 H        -0.801410        -1.602125         1.878322
