19
Iteration:  4237charge 0 multiplicity 1
 O         0.372946         0.162508         0.046659
 C        -0.765577         0.426251         0.909850
 C        -2.130393         0.048831         0.160817
 C        -2.647677         1.292496         0.862218
 C        -2.587786         0.988456         2.439235
 C        -1.631749         2.137126         2.594657
 C        -1.250787         1.896600         1.188732
 O        -2.039417        -0.328549         2.809489
 C        -0.782497        -0.494655         2.247771
 H        -0.074436        -0.012429        -0.811934
 H        -1.997006         0.127832        -0.893043
 H        -2.576976        -0.982246         0.469046
 H        -3.426466         2.019981         0.574077
 H        -3.459931         0.820317         3.091600
 H        -2.060357         3.116384         2.857093
 H        -0.897504         1.869846         3.368123
 H        -0.863147         2.681460         0.517918
 H         0.118406        -0.109943         2.774677
 H        -0.435807        -1.526351         2.077347
