19
Iteration:  4910charge 0 multiplicity 1
 O         0.411882         0.094708         0.023655
 C        -0.780198         0.292473         0.818951
 C        -2.080752         0.107689         0.037058
 C        -2.692978         1.278324         1.059336
 C        -2.661406         0.952480         2.519392
 C        -1.607455         2.185314         2.675539
 C        -1.258098         1.842657         1.182445
 O        -2.075323        -0.316946         2.759241
 C        -0.787308        -0.373741         2.120252
 H         1.059063        -0.334089         0.602180
 H        -1.989527         0.580085        -0.973072
 H        -2.726625        -0.746728         0.090437
 H        -3.642411         1.764941         0.558227
 H        -3.610472         0.945254         3.142693
 H        -1.938770         3.218973         2.702106
 H        -0.767175         2.130772         3.450660
 H        -0.663144         2.576122         0.569608
 H        -0.100805         0.265587         2.747317
 H        -0.486731        -1.385956         2.182008
