19
Iteration:  4003charge 0 multiplicity 1
 O         0.521586         0.345244         0.142933
 C        -0.809956         0.301146         0.792091
 C        -2.158635        -0.005692         0.146065
 C        -2.689766         1.301092         1.005272
 C        -2.617071         1.028226         2.491479
 C        -1.562020         2.160398         2.589980
 C        -1.283688         1.809475         1.164203
 O        -2.060933        -0.259859         2.845139
 C        -0.864462        -0.579403         2.089258
 H         0.703565        -0.543518        -0.193777
 H        -2.171939         0.221707        -0.944594
 H        -2.492286        -0.980571         0.379630
 H        -3.465472         1.871181         0.508766
 H        -3.542739         1.176599         3.058531
 H        -2.095774         3.111904         2.493614
 H        -0.783102         2.135147         3.355485
 H        -0.854416         2.539458         0.411916
 H         0.161505        -0.618395         2.703424
 H        -0.896756        -1.564784         1.646547
