19
Iteration:   156
 O         0.454549         0.329784         0.253267
 C        -0.813668         0.323003         0.850259
 C        -2.096809         0.292765         0.063871
 C        -2.639343         1.418401         1.003182
 C        -2.585041         0.953275         2.568895
 C        -1.382214         2.020266         2.733840
 C        -1.180248         1.854720         1.248830
 O        -2.269924        -0.389666         2.552988
 C        -0.962562        -0.677299         1.914860
 H         0.981486        -0.466012         0.540722
 H        -2.116751         0.542990        -0.945897
 H        -2.669223        -0.722542         0.155553
 H        -3.461041         2.110098         0.747517
 H        -3.447304         1.064095         3.311106
 H        -1.754326         2.969272         2.971067
 H        -0.525772         1.743945         3.350144
 H        -0.721501         2.550196         0.570803
 H        -0.131301        -0.449520         2.693805
 H        -1.091411        -1.712329         1.654952
