19
Iteration:  1233charge 0 multiplicity 1
 O         0.474818         0.177169         0.096918
 C        -0.770590         0.305518         0.879978
 C        -2.166124         0.182587         0.121663
 C        -2.631959         1.350814         0.948363
 C        -2.655798         1.007264         2.493995
 C        -1.442599         2.104389         2.713912
 C        -1.128102         1.834090         1.257739
 O        -2.237623        -0.427157         2.642023
 C        -0.879564        -0.529061         2.101278
 H         0.530722         1.042530        -0.373354
 H        -2.251902         0.430856        -0.969735
 H        -2.630634        -0.779523         0.292708
 H        -3.402908         2.006272         0.591591
 H        -3.632834         1.071068         3.037151
 H        -1.946938         3.073580         2.929946
 H        -0.673938         2.075484         3.505336
 H        -0.463477         2.503471         0.693170
 H        -0.306841         0.021362         2.913981
 H        -0.815898        -1.637020         1.910345
