19
Iteration:  3456charge 0 multiplicity 1
 O         0.366808         0.220459         0.083160
 C        -0.757140         0.273044         0.915086
 C        -2.086167         0.119960         0.073519
 C        -2.619851         1.370458         0.902460
 C        -2.611051         0.967768         2.471522
 C        -1.539135         2.142359         2.634666
 C        -1.243359         1.952988         1.182289
 O        -2.138664        -0.365677         2.816069
 C        -0.888600        -0.585428         2.105966
 H         1.226481         0.059911         0.513431
 H        -1.774091         0.451980        -0.950506
 H        -2.533536        -0.854940         0.150370
 H        -3.519524         1.933531         0.610654
 H        -3.563770         1.013526         3.133622
 H        -2.120727         3.126263         2.915210
 H        -0.658005         1.979596         3.367836
 H        -0.768939         2.820059         0.590237
 H         0.089874        -0.494682         2.706302
 H        -0.987854        -1.717993         1.707315
