19
Iteration:  2176charge 0 multiplicity 1
 O         0.410214         0.131578         0.081970
 C        -0.780100         0.310768         0.808611
 C        -2.115182         0.130881         0.184290
 C        -2.550697         1.415426         0.920901
 C        -2.692690         0.977162         2.514793
 C        -1.581782         2.026890         2.712685
 C        -1.089507         1.781886         1.268044
 O        -2.207674        -0.312027         2.668723
 C        -0.799473        -0.474642         2.096738
 H         0.354504         0.814675        -0.609530
 H        -2.303191         0.282317        -0.889658
 H        -2.699648        -0.784706         0.364954
 H        -3.379332         2.098431         0.532212
 H        -3.757695         0.991207         2.831750
 H        -2.023336         3.183019         2.776593
 H        -0.721684         2.069182         3.541283
 H        -0.456176         2.617946         0.873657
 H        -0.274652         0.031474         2.963083
 H        -0.561548        -1.559835         2.089725
