19
Iteration:   459
 O         0.522187         0.237482         0.263709
 C        -0.814192         0.330219         0.800978
 C        -2.116792         0.375387        -0.057325
 C        -2.730376         1.330073         1.045723
 C        -2.566889         0.974537         2.558870
 C        -1.419657         2.085599         2.693349
 C        -1.224750         1.791280         1.208721
 O        -2.149706        -0.362906         2.680734
 C        -0.970544        -0.641945         1.994128
 H         0.844822        -0.557032         0.699824
 H        -2.083286         0.927229        -0.991500
 H        -2.632946        -0.502721        -0.304445
 H        -3.742590         1.933955         0.848284
 H        -3.578958         1.005199         3.092295
 H        -1.929931         3.037822         2.674117
 H        -0.667784         2.117408         3.463418
 H        -0.694093         2.392527         0.437718
 H        -0.152443        -0.614766         2.761126
 H        -1.097444        -1.784250         1.835214
