19
Iteration:  2315
 O         0.416125         0.083019         0.058612
 C        -0.809258         0.326419         0.849278
 C        -2.189786         0.187178         0.127481
 C        -2.638669         1.340214         0.974066
 C        -2.663573         0.966220         2.475737
 C        -1.564989         1.984815         2.697036
 C        -1.014986         1.846946         1.251055
 O        -2.233203        -0.319790         2.625101
 C        -0.770671        -0.404171         2.252362
 H         0.642510         0.784395        -0.597144
 H        -2.088754         0.483491        -0.983610
 H        -2.776227        -0.748749         0.007493
 H        -3.389321         2.044258         0.612028
 H        -3.677491         1.037560         2.973477
 H        -1.992902         2.960810         2.872216
 H        -0.883057         1.912754         3.516815
 H        -0.391005         2.670451         0.846540
 H        -0.021483        -0.020630         2.872855
 H        -0.427127        -1.430961         1.975319
