19
Iteration:  3014
 O         0.408089         0.194873         0.078091
 C        -0.778510         0.328736         0.871974
 C        -2.090783         0.189840         0.108576
 C        -2.596452         1.432210         0.888482
 C        -2.727631         0.918038         2.437405
 C        -1.559697         2.005210         2.806283
 C        -1.102122         1.807575         1.280458
 O        -2.173770        -0.328298         2.678746
 C        -0.784178        -0.474716         2.153570
 H         0.195535         0.082246        -0.855499
 H        -2.097317         0.363068        -1.037976
 H        -2.851957        -0.656387         0.252123
 H        -3.339092         2.139929         0.426041
 H        -3.714660         0.973274         2.939385
 H        -1.959660         3.010203         2.864430
 H        -0.838054         1.930830         3.638058
 H        -0.607541         2.575490         0.705417
 H        -0.020635        -0.309015         2.846388
 H        -0.736986        -1.571383         2.113362
