19
Iteration:  1646
 O         0.380450         0.061823         0.154250
 C        -0.783924         0.319801         0.836193
 C        -2.087977         0.251866         0.014383
 C        -2.617833         1.374510         0.941478
 C        -2.649515         0.947863         2.404796
 C        -1.615898         2.021401         2.761723
 C        -1.154797         1.878970         1.261890
 O        -2.101076        -0.303798         2.785455
 C        -0.810003        -0.503471         2.101984
 H         0.290786         0.426577        -0.764884
 H        -2.016318         0.673531        -0.996622
 H        -2.654784        -0.683748         0.238750
 H        -3.254926         2.099159         0.473835
 H        -3.630508         0.963048         2.925097
 H        -2.264682         2.968853         2.821076
 H        -0.880843         1.888557         3.579377
 H        -0.734701         2.827591         0.696080
 H         0.199430        -0.288878         2.757805
 H        -0.778892        -1.614905         1.931256
