19
Iteration:  1723
 O         0.421589         0.138623         0.251514
 C        -0.847946         0.384316         0.861573
 C        -2.153045         0.220300         0.058867
 C        -2.681662         1.386495         0.911561
 C        -2.616170         0.996645         2.453398
 C        -1.434005         1.964959         2.683261
 C        -1.285192         1.794598         1.167658
 O        -2.118581        -0.319940         2.710874
 C        -0.833655        -0.538788         2.091437
 H         0.860092         0.920614        -0.156986
 H        -2.060614         0.588051        -0.978250
 H        -2.541296        -0.830853         0.191776
 H        -3.426216         2.141915         0.633343
 H        -3.518615         0.944059         3.154032
 H        -1.586704         3.069864         2.941314
 H        -0.693351         1.798802         3.464566
 H        -0.814252         2.551065         0.417682
 H        -0.044873        -0.270574         2.865078
 H        -0.705075        -1.633908         1.897549
