19
Iteration:   579charge 0 multiplicity 1
 O         0.500680         0.061236         0.315150
 C        -0.842527         0.409372         0.793085
 C        -2.130002         0.296335        -0.015766
 C        -2.678894         1.300634         0.951323
 C        -2.603366         0.997972         2.488327
 C        -1.428239         1.986628         2.762248
 C        -1.259011         1.867201         1.302731
 O        -2.133698        -0.275836         2.734743
 C        -0.966202        -0.574007         1.902195
 H         0.962985         0.835915        -0.106570
 H        -2.044730         0.586681        -1.154378
 H        -2.532881        -0.723210        -0.097543
 H        -3.602430         1.964718         0.696588
 H        -3.579181         1.087930         3.033670
 H        -1.804217         2.957348         3.073421
 H        -0.569989         1.721846         3.298717
 H        -0.719146         2.634824         0.692577
 H        -0.036588        -0.502865         2.493733
 H        -0.946172        -1.656827         1.630568
