19
Iteration:  4150
 O         0.491712         0.227784         0.232645
 C        -0.850795         0.404921         0.789315
 C        -2.114030         0.068265         0.090297
 C        -2.778263         1.221452         0.976722
 C        -2.590824         0.920185         2.605845
 C        -1.432362         2.186879         2.583160
 C        -1.324348         1.831948         1.042928
 O        -2.099534        -0.305188         2.813412
 C        -0.792109        -0.437123         2.078860
 H         0.471279        -0.595979        -0.296209
 H        -2.021376         0.418957        -0.911411
 H        -2.658777        -0.898230         0.118306
 H        -3.760421         1.629107         0.711003
 H        -3.489224         1.130939         3.178767
 H        -1.905619         3.133171         2.721929
 H        -0.682057         1.988733         3.277409
 H        -1.015579         2.597038         0.361042
 H         0.154870        -0.056778         2.689743
 H        -0.669367        -1.574417         1.973843
