19
Iteration:  4635charge 0 multiplicity 1
 O         0.446577         0.170453         0.038803
 C        -0.749635         0.353945         0.744252
 C        -2.105565         0.068435         0.130251
 C        -2.627966         1.222112         0.965305
 C        -2.713801         0.943076         2.439566
 C        -1.663421         2.091187         2.717766
 C        -1.181680         1.859101         1.165212
 O        -2.116421        -0.240999         2.881861
 C        -0.720172        -0.400717         2.153509
 H         0.118439        -0.365535        -0.714960
 H        -2.042248         0.307580        -0.972328
 H        -2.500030        -0.900307         0.200357
 H        -3.606433         1.821146         0.826294
 H        -3.713560         1.188932         2.937407
 H        -2.144207         3.111261         2.734196
 H        -0.858506         2.087536         3.473347
 H        -0.702420         2.631182         0.564584
 H         0.186076        -0.006523         2.843272
 H        -0.764665        -1.503905         2.150340
