19
Iteration:  2774
 O         0.466482         0.120343         0.335794
 C        -0.765728         0.447983         0.762695
 C        -2.201257         0.180853         0.077157
 C        -2.740284         1.372705         0.963202
 C        -2.573180         0.940964         2.588775
 C        -1.384535         2.027483         2.651410
 C        -1.211360         1.883148         1.132767
 O        -2.170867        -0.399885         2.623136
 C        -0.907679        -0.485169         2.066963
 H         0.796106         0.628769        -0.413207
 H        -2.242137         0.588788        -0.883890
 H        -2.594820        -0.808679         0.278475
 H        -3.477743         2.027323         0.564136
 H        -3.438277         1.036101         3.241060
 H        -2.029865         2.861110         2.985452
 H        -0.683373         1.739578         3.442797
 H        -0.658218         2.685191         0.586084
 H        -0.165826        -0.407900         2.859738
 H        -0.725547        -1.412029         1.643046
