19
Iteration:  2958
 O         0.451991         0.088717         0.316208
 C        -0.825070         0.378572         0.821452
 C        -2.143657         0.212683        -0.033643
 C        -2.653797         1.387903         0.946057
 C        -2.539449         1.002603         2.516302
 C        -1.563183         2.107217         2.692060
 C        -1.247420         1.942496         1.198732
 O        -2.046570        -0.420623         2.742612
 C        -0.915116        -0.635562         1.992429
 H         0.851954         0.931912         0.054104
 H        -2.122677         0.695202        -1.040078
 H        -2.860402        -0.584885         0.244704
 H        -3.522137         1.983751         0.865402
 H        -3.456522         1.061001         3.107771
 H        -1.926196         3.095307         2.753931
 H        -0.743909         1.869982         3.401405
 H        -0.829192         2.599185         0.476497
 H        -0.031442        -0.556079         2.592663
 H        -1.086832        -1.658918         1.567462
