19
Iteration:   925
 O         0.449854        -0.000157         0.090581
 C        -0.780058         0.339798         0.842121
 C        -2.111606         0.408386        -0.082434
 C        -2.534881         1.426402         0.972109
 C        -2.645642         0.920132         2.537744
 C        -1.652316         2.050003         2.747235
 C        -1.168181         1.872468         1.395403
 O        -2.101505        -0.364521         2.746255
 C        -0.908745        -0.614652         2.043671
 H         0.411797         0.695509        -0.612538
 H        -1.875187         0.724414        -1.129444
 H        -2.586797        -0.635583        -0.092275
 H        -3.287517         2.096335         0.831003
 H        -3.566834         0.983735         3.039775
 H        -2.239215         2.994748         2.755779
 H        -1.050466         2.256610         3.643146
 H        -0.755323         2.711972         0.693490
 H        -0.160400        -0.300438         2.767235
 H        -0.739398        -1.649583         1.808872
