19
Iteration:  4559charge 0 multiplicity 1
 O         0.478257         0.230005         0.103216
 C        -0.815540         0.335857         0.780981
 C        -2.149447         0.011489         0.133065
 C        -2.730923         1.217585         0.973056
 C        -2.700938         1.010621         2.533132
 C        -1.446086         2.109766         2.612392
 C        -1.277342         1.735895         1.137722
 O        -2.053509        -0.201273         2.837789
 C        -0.829122        -0.470264         2.111822
 H         0.683656         1.167049         0.065617
 H        -2.101502         0.326759        -1.040860
 H        -2.232043        -1.073109         0.062748
 H        -3.410286         1.952194         0.414230
 H        -3.665495         1.142239         3.168689
 H        -2.035149         3.046271         2.820143
 H        -0.858728         2.028380         3.571370
 H        -0.857085         2.379498         0.332298
 H        -0.039923        -0.390985         2.823292
 H        -0.782276        -1.564159         1.903568
