19
Iteration:  1806
 O         0.487601         0.174692         0.273426
 C        -0.820123         0.401750         0.822194
 C        -2.180188         0.190728        -0.021750
 C        -2.640665         1.352484         0.937855
 C        -2.637149         0.961452         2.520264
 C        -1.433122         1.978143         2.705893
 C        -1.224095         1.889600         1.190060
 O        -2.155286        -0.345925         2.736572
 C        -0.911708        -0.477287         2.088899
 H         0.399696         0.120456        -0.687798
 H        -2.059859         0.357616        -1.139133
 H        -2.710026        -0.765604         0.110233
 H        -3.478819         2.073885         0.643717
 H        -3.462411         0.981034         3.224883
 H        -1.697145         2.979188         3.002278
 H        -0.561719         1.631823         3.311841
 H        -0.753943         2.504006         0.410212
 H        -0.007179        -0.250406         2.858745
 H        -0.719800        -1.565758         1.752765
