19
Iteration:  3463
 O         0.400810         0.238203         0.092164
 C        -0.769705         0.314903         0.875923
 C        -2.087522         0.151292         0.141533
 C        -2.665593         1.301951         0.887941
 C        -2.584851         0.991695         2.468126
 C        -1.561351         2.148688         2.681500
 C        -1.229582         1.970667         1.182919
 O        -2.105255        -0.365084         2.823100
 C        -0.924957        -0.631574         2.087294
 H         1.163943        -0.219336         0.472158
 H        -1.843797         0.457081        -0.906778
 H        -2.584063        -0.883267         0.214309
 H        -3.417981         1.974630         0.495549
 H        -3.559158         1.001661         2.857254
 H        -2.015249         3.097916         2.656391
 H        -0.719154         2.019911         3.317857
 H        -0.739816         2.674536         0.549043
 H        -0.057369        -0.628771         2.683239
 H        -0.974964        -1.545315         1.677489
