19
Iteration:   238
 O         0.421682         0.126188         0.072334
 C        -0.702077         0.354387         0.880341
 C        -2.068636         0.252255         0.171322
 C        -2.576986         1.512250         0.989283
 C        -2.692165         0.977362         2.498047
 C        -1.581978         1.975459         2.810488
 C        -1.132555         1.868267         1.294294
 O        -2.205498        -0.425990         2.531426
 C        -0.886384        -0.539732         2.076735
 H         0.209681        -0.273102        -0.783431
 H        -1.904051         0.694527        -0.894838
 H        -2.542088        -0.659792         0.150830
 H        -3.331743         2.381492         0.673520
 H        -3.619103         0.904001         2.993801
 H        -2.097435         2.999596         2.935324
 H        -0.916696         1.994173         3.701199
 H        -0.620403         2.741916         0.771141
 H        -0.159701        -0.221960         2.824193
 H        -0.684200        -1.685663         1.879262
