19
Iteration:  4866
 O         0.429447         0.231728         0.131984
 C        -0.779658         0.346858         0.812400
 C        -2.123305         0.134426         0.144965
 C        -2.682970         1.218582         0.899004
 C        -2.694470         0.979336         2.494813
 C        -1.551039         2.181797         2.583467
 C        -1.243056         1.874178         1.083816
 O        -1.975957        -0.254016         2.931373
 C        -0.900345        -0.647826         2.035734
 H         1.098549         0.457488         0.807623
 H        -2.162253         0.343185        -0.985905
 H        -2.340466        -0.895408         0.334400
 H        -3.737020         1.750957         0.684383
 H        -3.740495         1.078388         2.972264
 H        -1.871454         3.162439         2.963578
 H        -0.775297         1.876325         3.376519
 H        -0.817728         2.636885         0.370310
 H         0.048289        -0.591541         2.574015
 H        -1.153998        -1.620083         1.798303
