19
Iteration:  4423
 O         0.464535         0.310952         0.149418
 C        -0.780275         0.340161         0.779565
 C        -2.131696         0.006913         0.114249
 C        -2.719435         1.202662         0.995180
 C        -2.679746         1.061539         2.533625
 C        -1.539890         2.215097         2.571959
 C        -1.247841         1.774326         1.115985
 O        -2.081217        -0.247541         2.884633
 C        -0.787378        -0.586024         2.059201
 H         0.611557        -0.496298        -0.383639
 H        -2.270650         0.403107        -0.905222
 H        -2.451251        -1.096651         0.218285
 H        -3.498223         1.775259         0.539356
 H        -3.587318         0.994432         3.123585
 H        -2.006563         3.255115         2.615150
 H        -0.797676         2.263132         3.447438
 H        -0.671111         2.596719         0.623668
 H         0.002537        -0.349490         2.781254
 H        -0.724855        -1.641002         1.923690
