19
Iteration:  4117
 O         0.389528         0.338263        -0.003498
 C        -0.806910         0.295448         0.827749
 C        -2.149503         0.048837         0.128211
 C        -2.660423         1.287013         0.926569
 C        -2.666690         0.973799         2.496894
 C        -1.571177         2.089538         2.657244
 C        -1.165475         1.765841         1.123531
 O        -2.094692        -0.230058         2.868937
 C        -0.748257        -0.483066         2.159441
 H         0.778132        -0.537200        -0.050947
 H        -1.935738         0.225924        -0.901226
 H        -2.638441        -0.910971         0.465821
 H        -3.508920         1.851395         0.506439
 H        -3.638458         0.962167         3.007979
 H        -1.900955         3.108807         2.631366
 H        -0.952431         1.982888         3.524064
 H        -0.767319         2.483959         0.434747
 H        -0.072868        -0.082700         3.087028
 H        -0.756053        -1.646948         2.168826
