19
Iteration:  2367charge 0 multiplicity 1
 O         0.528076         0.107817         0.251157
 C        -0.781060         0.420403         0.797366
 C        -2.051874         0.275222         0.016306
 C        -2.666157         1.279761         0.989545
 C        -2.638860         1.007589         2.551122
 C        -1.520108         2.029207         2.686387
 C        -1.242898         1.833076         1.174496
 O        -2.096918        -0.286780         2.816614
 C        -1.028149        -0.612872         2.007951
 H         0.569730         0.079806        -0.732644
 H        -2.144811         0.738503        -0.975563
 H        -2.546679        -0.705556         0.077880
 H        -3.364256         2.040805         0.623925
 H        -3.522138         1.120006         3.311038
 H        -1.911906         3.020719         2.671918
 H        -0.710050         1.986648         3.455026
 H        -0.919880         2.681514         0.536967
 H        -0.029020        -0.438548         2.493513
 H        -1.063401        -1.566593         1.349858
