19
Iteration:  1874
 O         0.459889         0.074273         0.153546
 C        -0.803241         0.396876         0.855559
 C        -2.120702         0.292233         0.034748
 C        -2.621186         1.386813         0.947355
 C        -2.675614         0.889740         2.469363
 C        -1.547675         2.082412         2.718162
 C        -1.120496         1.837078         1.202918
 O        -2.126395        -0.323687         2.804575
 C        -0.859126        -0.543452         2.039398
 H         0.230792         0.382075        -0.772407
 H        -2.092229         0.544074        -1.030509
 H        -2.718143        -0.663734         0.133493
 H        -3.541014         2.063935         0.710423
 H        -3.746473         0.928854         2.937051
 H        -2.011590         3.107608         2.975803
 H        -0.991161         1.727499         3.629198
 H        -0.620522         2.582888         0.648199
 H         0.029571        -0.225170         2.819805
 H        -0.788958        -1.675007         1.973113
