19
Iteration:  1656charge 0 multiplicity 1
 O         0.436307         0.080381         0.180277
 C        -0.745502         0.423292         0.854698
 C        -2.139790         0.220243         0.027067
 C        -2.648356         1.354649         0.896282
 C        -2.615397         0.969035         2.459551
 C        -1.580261         2.045223         2.743702
 C        -1.203311         1.871437         1.250793
 O        -2.072269        -0.279222         2.749685
 C        -0.883692        -0.583776         2.093787
 H         0.364932         0.365812        -0.751519
 H        -1.966014         0.424178        -1.021882
 H        -2.627082        -0.786370        -0.037767
 H        -3.538918         1.966425         0.702467
 H        -3.582407         0.995520         2.943604
 H        -2.083851         2.992634         3.079048
 H        -0.843149         1.888040         3.572425
 H        -0.667517         2.676826         0.649158
 H        -0.033472        -0.437478         2.879055
 H        -0.943587        -1.619659         1.760923
