19
Iteration:  1697charge 0 multiplicity 1
 O         0.557289         0.237785         0.354646
 C        -0.871903         0.376478         0.808858
 C        -2.224045         0.173975        -0.027227
 C        -2.655073         1.282161         1.001624
 C        -2.488432         0.969733         2.541022
 C        -1.396248         2.019699         2.609069
 C        -1.230021         1.859907         1.099215
 O        -2.221117        -0.376258         2.723366
 C        -0.971361        -0.523526         2.084696
 H         0.677548         0.829787        -0.439700
 H        -2.219760         0.660237        -0.974010
 H        -2.697346        -0.764863         0.127647
 H        -3.610293         1.841543         0.859051
 H        -3.319719         1.069972         3.171650
 H        -1.639694         3.051300         2.808945
 H        -0.590435         1.938333         3.372795
 H        -0.724376         2.523781         0.537090
 H        -0.201419        -0.438334         2.721585
 H        -0.905705        -1.515845         1.726388
