19
Iteration:  2026
 O         0.438308        -0.032313         0.136019
 C        -0.787656         0.362861         0.827914
 C        -2.159817         0.248272         0.113900
 C        -2.695195         1.344919         0.991572
 C        -2.638894         0.961916         2.506157
 C        -1.611133         2.033457         2.745465
 C        -1.134525         1.866746         1.265492
 O        -2.087593        -0.315859         2.595616
 C        -0.827232        -0.429146         2.079248
 H         0.458584         0.694786        -0.513058
 H        -1.907109         0.707929        -0.861037
 H        -2.575724        -0.803335        -0.001690
 H        -3.526787         2.079561         0.663697
 H        -3.651717         0.962258         3.056803
 H        -1.886526         3.044755         2.637644
 H        -0.967915         1.891397         3.617524
 H        -0.514452         2.727419         0.873726
 H        -0.053104         0.038526         2.880589
 H        -0.630314        -1.566612         2.140141
