19
Iteration:   447charge 0 multiplicity 1
 O         0.480487         0.229240         0.235512
 C        -0.804852         0.398122         0.786184
 C        -2.109352         0.359769        -0.127351
 C        -2.637883         1.334930         1.058937
 C        -2.655183         0.902311         2.573646
 C        -1.434828         2.023386         2.628203
 C        -1.181538         1.777647         1.156645
 O        -2.179410        -0.381633         2.816207
 C        -0.999511        -0.594241         2.052153
 H         1.039831        -0.390370         0.787211
 H        -1.898441         1.080360        -0.960728
 H        -2.528628        -0.559298        -0.394273
 H        -3.426184         2.210111         0.797050
 H        -3.457542         1.061848         3.322947
 H        -1.929330         2.984510         2.711770
 H        -0.710017         1.928961         3.391935
 H        -0.832283         2.657958         0.523870
 H        -0.029226        -0.536603         2.608777
 H        -1.068361        -1.538891         1.407268
