19
Iteration:  3333charge 0 multiplicity 1
 O         0.440493         0.261960         0.146160
 C        -0.778308         0.351738         0.746758
 C        -2.123785         0.198616         0.016011
 C        -2.641471         1.321429         0.971093
 C        -2.673641         1.039895         2.480529
 C        -1.527212         1.959280         2.694754
 C        -1.166829         1.784253         1.212594
 O        -2.149987        -0.328318         2.783868
 C        -0.881197        -0.498414         2.093304
 H         0.981345        -0.422750         0.601664
 H        -2.225542         0.661110        -0.966582
 H        -2.666244        -0.705413        -0.006244
 H        -3.388926         1.993196         0.543494
 H        -3.510355         1.059926         3.118215
 H        -1.739509         3.010767         2.962286
 H        -0.919613         1.624599         3.535469
 H        -0.754733         2.481370         0.493235
 H        -0.154897        -0.077826         2.888155
 H        -0.659780        -1.554347         1.925547
