19
Iteration:  3217charge 0 multiplicity 1
 O         0.518131         0.143345         0.283754
 C        -0.805075         0.362606         0.763619
 C        -2.072964         0.126237         0.076827
 C        -2.672296         1.370233         1.064671
 C        -2.618890         1.001167         2.530487
 C        -1.485254         2.103917         2.717823
 C        -1.181409         1.899313         1.170937
 O        -2.249892        -0.393644         2.631472
 C        -0.895625        -0.551492         2.019565
 H         0.675658         0.566599        -0.576919
 H        -2.128868         0.573417        -0.959068
 H        -2.604563        -0.926762         0.236172
 H        -3.542780         1.832874         0.703102
 H        -3.497866         1.091242         3.176526
 H        -1.798718         3.153857         2.772396
 H        -0.681264         2.046566         3.465695
 H        -0.837227         2.758983         0.585116
 H        -0.177720        -0.392792         2.858402
 H        -0.817516        -1.562769         1.532963
