19
Iteration:  1314
 O         0.423502         0.094014         0.198169
 C        -0.781569         0.342927         0.844431
 C        -2.123063         0.258017         0.019835
 C        -2.660831         1.351457         0.941835
 C        -2.672351         0.935194         2.487162
 C        -1.483550         2.152880         2.720850
 C        -1.266966         1.881570         1.259519
 O        -2.110726        -0.355655         2.712005
 C        -0.819969        -0.574792         2.127165
 H         0.388295         0.038527        -0.759625
 H        -1.713591         0.718697        -0.978276
 H        -2.640776        -0.751910        -0.176060
 H        -3.573281         1.979790         0.653355
 H        -3.659883         1.114915         2.921988
 H        -1.943466         3.165968         2.808452
 H        -0.759513         1.913237         3.543648
 H        -0.609233         2.684709         0.659366
 H         0.090757        -0.352212         2.700750
 H        -0.782141        -1.610784         1.823327
