19
Iteration:  2130charge 0 multiplicity 1
 O         0.412620         0.055428         0.314119
 C        -0.807477         0.402250         0.820097
 C        -2.084334         0.226262         0.012173
 C        -2.676732         1.346835         0.968438
 C        -2.684354         0.971851         2.528929
 C        -1.442007         2.070636         2.603959
 C        -1.263067         1.918171         1.156928
 O        -2.048832        -0.397251         2.782276
 C        -0.918366        -0.484666         2.040544
 H         0.588008         0.587663        -0.501137
 H        -1.864619         0.549472        -1.038332
 H        -2.494180        -0.772266        -0.180593
 H        -3.500989         1.959558         0.677563
 H        -3.504035         1.139390         3.184042
 H        -1.855754         3.077089         3.108321
 H        -0.721802         1.758093         3.444000
 H        -0.921822         2.613121         0.397702
 H         0.028657        -0.422611         2.645286
 H        -0.955273        -1.556112         1.718219
