19
Iteration:  2006
 O         0.426785         0.043454         0.253150
 C        -0.790491         0.380149         0.771088
 C        -2.119649         0.261380        -0.020403
 C        -2.632744         1.351594         0.965810
 C        -2.624899         0.968336         2.500049
 C        -1.532990         2.120596         2.763224
 C        -1.241251         1.885589         1.213937
 O        -2.122424        -0.382787         2.768948
 C        -0.802392        -0.569374         2.048880
 H         0.506595         0.643791        -0.547198
 H        -2.011006         0.630410        -1.061979
 H        -2.747255        -0.678442         0.007534
 H        -3.410405         2.095868         0.619963
 H        -3.610352         1.130562         3.070831
 H        -2.158564         3.065778         2.904282
 H        -0.640648         1.977765         3.368697
 H        -0.902003         2.627204         0.491708
 H        -0.085057        -0.332776         2.806687
 H        -0.771794        -1.633926         1.645052
