19
Iteration:  2337
 O         0.393586         0.010510         0.181539
 C        -0.837493         0.356423         0.850822
 C        -2.078077         0.271484         0.085827
 C        -2.661076         1.416480         0.910943
 C        -2.673639         0.947282         2.458207
 C        -1.541129         2.083743         2.802065
 C        -1.218449         1.864591         1.188475
 O        -2.095613        -0.363557         2.680822
 C        -0.815259        -0.508817         2.126754
 H         0.580831         0.417683        -0.669494
 H        -1.977517         0.409262        -1.062145
 H        -2.656003        -0.689405         0.021746
 H        -3.364718         2.204785         0.625004
 H        -3.597038         1.022886         3.093662
 H        -1.892200         3.098703         3.020186
 H        -0.773554         2.011991         3.544166
 H        -0.691532         2.577069         0.517602
 H         0.023481        -0.131856         2.689321
 H        -0.419123        -1.569437         1.910131
