19
Iteration:  4451charge 0 multiplicity 1
 O         0.402672         0.371981         0.175219
 C        -0.809028         0.369009         0.864900
 C        -2.105197        -0.003113         0.148263
 C        -2.693959         1.250008         0.942477
 C        -2.572415         0.998489         2.459952
 C        -1.473019         2.119130         2.537143
 C        -1.293815         1.813913         1.056319
 O        -2.012703        -0.258398         2.868818
 C        -0.898435        -0.577789         2.154906
 H         0.394692        -0.292042        -0.515134
 H        -1.956469         0.323677        -0.940258
 H        -2.541456        -0.954539         0.406348
 H        -3.613491         1.848642         0.634959
 H        -3.533170         0.889191         3.031817
 H        -2.111090         2.981403         2.513680
 H        -0.681244         2.142497         3.318585
 H        -0.803770         2.637034         0.490895
 H        -0.157409        -0.382604         3.056216
 H        -0.977047        -1.748801         1.897120
