19
Iteration:  1107
 O         0.452299         0.173074         0.232020
 C        -0.860124         0.392422         0.833984
 C        -2.169139         0.178113         0.067958
 C        -2.626278         1.435237         0.952537
 C        -2.669426         0.982062         2.464153
 C        -1.420570         1.963758         2.695515
 C        -1.149181         1.898570         1.158564
 O        -2.214116        -0.453994         2.714366
 C        -0.835991        -0.507388         2.071492
 H         0.798706         0.980338        -0.202315
 H        -2.151528         0.473649        -0.925007
 H        -2.734023        -0.697372         0.332803
 H        -3.456838         1.994835         0.438399
 H        -3.516177         1.184653         3.107726
 H        -1.835758         2.927821         3.028693
 H        -0.625692         1.555381         3.364036
 H        -0.673906         2.591801         0.612701
 H        -0.087257        -0.209892         2.762815
 H        -0.660853        -1.540888         1.968258
