19
Iteration:  1186
 O         0.383878        -0.001553         0.205307
 C        -0.808607         0.368333         0.824541
 C        -2.072909         0.299302         0.051189
 C        -2.637833         1.417370         0.951828
 C        -2.642945         0.971054         2.462038
 C        -1.650280         2.084316         2.765273
 C        -1.199467         1.870854         1.280000
 O        -2.062598        -0.350597         2.693045
 C        -0.778034        -0.541154         2.053064
 H         0.345630         0.123381        -0.768956
 H        -1.782531         0.597913        -0.898869
 H        -2.678112        -0.636262        -0.095546
 H        -3.552192         1.991863         0.556508
 H        -3.613000         0.974730         2.954689
 H        -1.816006         3.104038         3.065960
 H        -0.939929         1.740177         3.514408
 H        -0.736163         2.670196         0.852555
 H        -0.030610        -0.117705         2.727030
 H        -0.752059        -1.574277         1.630099
