19
Iteration:  3489charge 0 multiplicity 1
 O         0.518995         0.218603         0.205070
 C        -0.760361         0.272454         0.790833
 C        -2.154952         0.111191         0.039915
 C        -2.693440         1.297814         0.993150
 C        -2.659615         1.023252         2.559748
 C        -1.610408         2.088996         2.668735
 C        -1.216957         1.833041         1.216522
 O        -2.070738        -0.247458         2.769161
 C        -0.884538        -0.496319         2.005931
 H         0.844920        -0.644494        -0.092793
 H        -2.046414         0.448602        -1.040690
 H        -2.546115        -0.920718         0.030384
 H        -3.400838         2.086191         0.686926
 H        -3.649025         1.005491         3.183375
 H        -2.007403         3.176804         2.613722
 H        -0.776828         1.969674         3.458478
 H        -0.796547         2.690312         0.565026
 H         0.068451        -0.432501         2.566054
 H        -0.994319        -1.589849         1.710611
