19
Iteration:  3277charge 0 multiplicity 1
 O         0.441058         0.072335         0.054322
 C        -0.747020         0.376738         0.796177
 C        -2.053312         0.216358         0.045049
 C        -2.646462         1.348889         0.981289
 C        -2.679714         0.927841         2.530655
 C        -1.575182         2.068722         2.740706
 C        -1.165903         1.778870         1.299666
 O        -2.200393        -0.294461         2.728211
 C        -0.859113        -0.490377         2.091573
 H         1.025532         0.832798         0.123324
 H        -1.983502         0.600500        -0.963478
 H        -2.559015        -0.687078        -0.129798
 H        -3.438431         2.102740         0.637473
 H        -3.607318         1.074884         3.093655
 H        -2.110656         3.021640         2.622083
 H        -0.761782         1.955081         3.491491
 H        -0.677507         2.547569         0.674260
 H        -0.148558        -0.248426         2.956717
 H        -0.769211        -1.493542         1.712539
