19
Iteration:  3664charge 0 multiplicity 1
 O         0.333605         0.220888         0.121617
 C        -0.803993         0.318490         0.878603
 C        -2.142975         0.090448         0.137250
 C        -2.700706         1.339270         0.905428
 C        -2.671213         0.983837         2.411955
 C        -1.593687         2.126572         2.634441
 C        -1.180808         1.835022         1.197786
 O        -2.006539        -0.310812         2.722200
 C        -0.766008        -0.529016         2.145469
 H         0.965260        -0.326623         0.619096
 H        -2.080413         0.300703        -1.012452
 H        -2.729027        -0.823008         0.290152
 H        -3.429545         2.129218         0.716810
 H        -3.643523         0.813608         3.003960
 H        -2.060710         3.110466         2.727085
 H        -0.816541         2.161729         3.393338
 H        -0.420898         2.541532         0.717357
 H        -0.047372        -0.046742         3.014054
 H        -0.558074        -1.509461         1.851666
