19
Iteration:  1469
 O         0.396184         0.156563         0.090078
 C        -0.767929         0.353906         0.835528
 C        -2.139432         0.193224         0.090882
 C        -2.613258         1.306846         0.927614
 C        -2.657718         0.983216         2.429110
 C        -1.531511         2.067091         2.764722
 C        -1.134511         1.830295         1.253173
 O        -2.210281        -0.416246         2.680988
 C        -0.803529        -0.460584         2.225993
 H         0.417576         0.486370        -0.851591
 H        -2.015858         0.337602        -1.010336
 H        -2.806163        -0.732508         0.151610
 H        -3.186657         2.253367         0.575606
 H        -3.685701         1.044809         2.752717
 H        -1.757865         3.097732         2.943230
 H        -0.869099         2.024495         3.630790
 H        -0.565579         2.636080         0.629974
 H        -0.183160         0.027236         2.951481
 H        -0.447872        -1.432387         2.127441
