19
Iteration:  2631charge 0 multiplicity 1
 O         0.428463         0.146526         0.218969
 C        -0.806259         0.387267         0.869355
 C        -2.166849         0.177030         0.011952
 C        -2.700280         1.373103         0.970115
 C        -2.627150         1.014855         2.497598
 C        -1.456615         2.063042         2.630608
 C        -1.196950         1.795925         1.209474
 O        -2.111864        -0.371718         2.747025
 C        -0.884544        -0.557130         2.046054
 H         0.862804         1.021077         0.081683
 H        -2.067962         0.610226        -0.973972
 H        -2.661101        -0.802171         0.046417
 H        -3.421923         2.136282         0.710907
 H        -3.605797         0.949848         3.016467
 H        -1.925734         3.081907         2.801010
 H        -0.781966         1.707337         3.465582
 H        -0.601691         2.505570         0.587828
 H        -0.077174        -0.191592         2.758953
 H        -0.621336        -1.586014         1.789779
