19
Iteration:  2144
 O         0.446059         0.063980         0.192836
 C        -0.818192         0.322850         0.850113
 C        -2.111106         0.225740         0.047388
 C        -2.695049         1.335318         0.929291
 C        -2.607375         0.970152         2.518990
 C        -1.514517         2.047176         2.713610
 C        -1.241927         1.884431         1.186938
 O        -2.165411        -0.291410         2.729704
 C        -0.797683        -0.534828         2.108489
 H         0.554282         0.719959        -0.504961
 H        -2.007518         0.771845        -0.886831
 H        -2.581447        -0.763465         0.048169
 H        -3.588890         1.917442         0.501690
 H        -3.603214         0.948283         3.034476
 H        -1.891390         3.109482         2.770942
 H        -0.518444         1.848613         3.211331
 H        -0.581323         2.712611         0.779701
 H        -0.026749        -0.173616         2.753934
 H        -0.715650        -1.584381         1.840069
