19
Iteration:  4098charge 0 multiplicity 1
 O         0.265797         0.248802         0.038360
 C        -0.778000         0.380565         0.922774
 C        -2.126811         0.002734         0.207268
 C        -2.615449         1.305406         0.827308
 C        -2.635854         1.014135         2.413085
 C        -1.615386         2.149539         2.623289
 C        -1.212803         1.846971         1.192799
 O        -2.004208        -0.344428         2.775297
 C        -0.734863        -0.458134         2.199281
 H         0.633551        -0.642854         0.088319
 H        -2.165628         0.248330        -0.890084
 H        -2.751075        -0.817433         0.546829
 H        -3.423422         1.935135         0.499957
 H        -3.578571         1.164227         2.948945
 H        -2.240253         3.030598         2.910022
 H        -0.875988         1.888007         3.407960
 H        -0.536610         2.536393         0.763339
 H         0.179936        -0.233352         2.669286
 H        -0.694362        -1.579791         1.963041
