19
Iteration:   591
 O         0.481615         0.156399         0.318605
 C        -0.823418         0.334928         0.769250
 C        -2.112293         0.242560        -0.056636
 C        -2.704634         1.325110         1.010533
 C        -2.602949         1.026661         2.580349
 C        -1.413868         1.990005         2.721637
 C        -1.162976         1.838562         1.145379
 O        -2.177272        -0.344622         2.699091
 C        -0.977068        -0.576670         2.002261
 H         0.739638         1.056673         0.118566
 H        -2.011940         1.029057        -0.857981
 H        -2.614117        -0.721218        -0.319932
 H        -3.629306         1.879306         0.577755
 H        -3.495315         1.182568         3.291787
 H        -1.637372         2.986750         2.991107
 H        -0.736139         1.644411         3.469338
 H        -0.622377         2.678827         0.718200
 H        -0.104241        -0.411825         2.658095
 H        -1.089984        -1.609794         1.560390
