19
Iteration:  2389charge 0 multiplicity 1
 O         0.505776         0.251229         0.287693
 C        -0.798118         0.273568         0.849802
 C        -2.173998         0.184895        -0.085541
 C        -2.643503         1.305154         0.938815
 C        -2.601160         1.024660         2.512234
 C        -1.469633         2.124727         2.677442
 C        -1.233476         1.838416         1.211975
 O        -2.134157        -0.303357         2.829410
 C        -0.951266        -0.674369         2.033443
 H         0.413952         0.325853        -0.664333
 H        -2.051449         0.789103        -0.981614
 H        -2.729687        -0.728949        -0.357864
 H        -3.579871         1.872828         0.815620
 H        -3.497043         1.339060         3.180616
 H        -1.682298         3.157273         2.901463
 H        -0.656781         1.820782         3.391030
 H        -0.534876         2.529424         0.696603
 H         0.062898        -0.629214         2.599088
 H        -1.132720        -1.681137         1.461136
