19
Iteration:  3476
 O         0.466847         0.239053         0.117187
 C        -0.754269         0.442614         0.848760
 C        -2.099213         0.154724         0.101448
 C        -2.662483         1.282759         0.968502
 C        -2.648504         1.008909         2.477307
 C        -1.578420         2.144546         2.654963
 C        -1.204810         1.800966         1.184830
 O        -2.080938        -0.264084         2.786250
 C        -0.883006        -0.656639         2.034803
 H         0.703140        -0.627059         0.525825
 H        -2.202211         0.433340        -0.999506
 H        -2.556301        -0.866148         0.287216
 H        -3.570603         1.736160         0.619857
 H        -3.557867         1.109748         3.133171
 H        -2.126104         3.095037         2.833284
 H        -0.954927         2.035310         3.577784
 H        -0.684718         2.540944         0.522025
 H        -0.085561        -0.689177         2.732611
 H        -1.061529        -1.604746         1.622889
