19
Iteration:  4749charge 0 multiplicity 1
 O         0.384972         0.255678         0.114807
 C        -0.791948         0.359562         0.842306
 C        -2.106021         0.124730         0.047655
 C        -2.719240         1.234791         0.929596
 C        -2.614462         1.028071         2.510764
 C        -1.587845         2.145985         2.549130
 C        -1.268421         1.838551         1.170227
 O        -2.012352        -0.339777         2.888220
 C        -0.839501        -0.550121         2.112987
 H         1.065261        -0.242239         0.629211
 H        -1.903229         0.292292        -1.007405
 H        -2.630104        -0.896114         0.145350
 H        -3.509238         1.824595         0.632526
 H        -3.368450         1.195292         3.189956
 H        -2.182904         3.053836         2.601308
 H        -0.787028         2.306426         3.268876
 H        -0.735668         2.547935         0.505403
 H         0.144433        -0.280151         2.646064
 H        -0.826135        -1.744824         1.949340
