19
Iteration:  4017
 O         0.412158         0.337704         0.244020
 C        -0.768674         0.371059         0.909411
 C        -2.154482         0.064102         0.092217
 C        -2.763298         1.229868         0.849795
 C        -2.625803         1.038944         2.537062
 C        -1.520947         2.136693         2.573323
 C        -1.233534         1.822140         1.021318
 O        -1.990457        -0.284757         2.878287
 C        -0.830545        -0.601697         2.069687
 H         0.549518        -0.437797        -0.341093
 H        -2.010180         0.279047        -0.940109
 H        -2.738428        -0.901053         0.212085
 H        -3.685087         1.867086         0.717907
 H        -3.504939         0.998267         3.195151
 H        -1.859288         3.115113         2.853377
 H        -0.803065         2.012333         3.377865
 H        -0.706354         2.571986         0.373927
 H         0.032380        -0.474001         2.756009
 H        -1.146050        -1.713902         1.771155
