19
Iteration:   132charge 0 multiplicity 1
 O         0.441735         0.243405         0.072930
 C        -0.808014         0.358834         0.856800
 C        -2.169448         0.309140         0.059114
 C        -2.567687         1.465519         1.000215
 C        -2.598667         0.947507         2.443887
 C        -1.476197         1.969066         2.773156
 C        -1.061758         1.921949         1.292998
 O        -2.274263        -0.532794         2.617821
 C        -0.925017        -0.555240         2.119849
 H         0.771999        -0.664783         0.185785
 H        -2.010837         0.825307        -0.943588
 H        -2.793874        -0.625494        -0.166053
 H        -3.291260         2.178047         0.791016
 H        -3.502666         1.100649         3.041091
 H        -2.018658         2.918222         2.872955
 H        -0.768868         1.836682         3.607207
 H        -0.629163         2.737073         0.754264
 H        -0.192251        -0.198775         2.980597
 H        -0.862004        -1.593964         1.826142
