19
Iteration:  1851charge 0 multiplicity 1
 O         0.459753         0.249245         0.306923
 C        -0.816659         0.328004         0.871760
 C        -2.161117         0.170004         0.035169
 C        -2.640600         1.338666         0.918172
 C        -2.571632         1.014501         2.567774
 C        -1.419233         2.110521         2.654958
 C        -1.241499         1.843815         1.185334
 O        -2.121814        -0.357673         2.695577
 C        -0.955422        -0.608455         2.020903
 H         0.260552         0.096017        -0.607672
 H        -2.070882         0.635867        -0.972309
 H        -2.601092        -0.848527        -0.113860
 H        -3.432888         2.138560         0.628507
 H        -3.549977         0.986221         3.153812
 H        -1.948844         3.064402         2.973306
 H        -0.503253         1.976970         3.313105
 H        -0.738927         2.660629         0.720930
 H         0.050786        -0.749336         2.737011
 H        -1.093180        -1.702110         1.646977
