19
Iteration:   361
 O         0.352545         0.170038         0.077196
 C        -0.789904         0.329463         0.873593
 C        -2.129060         0.284514         0.026137
 C        -2.520848         1.384104         0.948065
 C        -2.650818         0.993283         2.443883
 C        -1.531555         1.956382         2.792445
 C        -1.124348         1.816219         1.269722
 O        -2.234897        -0.392210         2.650176
 C        -0.840262        -0.526979         2.156294
 H         0.968826         0.910952         0.002719
 H        -1.875249         0.674317        -0.965850
 H        -2.747998        -0.572155        -0.118416
 H        -3.294319         2.074733         0.560331
 H        -3.600175         1.141099         3.016141
 H        -1.812265         2.972242         3.115984
 H        -0.799236         1.623068         3.611867
 H        -0.605211         2.578605         0.685192
 H        -0.197678        -0.208197         2.959619
 H        -0.781640        -1.606285         1.928086
