19
Iteration:  1456
 O         0.431080         0.195480         0.145192
 C        -0.798026         0.363504         0.847742
 C        -2.090153         0.160670         0.062469
 C        -2.579436         1.377077         0.919472
 C        -2.631317         0.947418         2.472477
 C        -1.508806         2.041545         2.678446
 C        -1.167615         1.842668         1.250330
 O        -2.194649        -0.344016         2.760081
 C        -0.887687        -0.524458         2.129503
 H         0.177314         0.404493        -0.752403
 H        -1.966158         0.555188        -0.952680
 H        -2.450232        -0.855875         0.152416
 H        -3.482020         2.021147         0.515524
 H        -3.512517         1.096564         3.142011
 H        -2.184490         2.892371         2.750948
 H        -0.717373         1.713461         3.397213
 H        -0.716071         2.652723         0.671668
 H        -0.072810        -0.139864         2.853244
 H        -0.797514        -1.580333         1.977679
