19
Iteration:  2909
 O         0.469505         0.199506         0.137553
 C        -0.801480         0.349077         0.826282
 C        -2.067578         0.214838         0.038403
 C        -2.657710         1.345487         0.933563
 C        -2.645077         0.997469         2.515156
 C        -1.468684         2.034771         2.767246
 C        -1.191798         1.841972         1.217549
 O        -2.196373        -0.321884         2.758747
 C        -0.890776        -0.633815         2.080011
 H         0.316781         0.725964        -0.666321
 H        -1.924518         0.719751        -0.905679
 H        -2.417771        -0.801981         0.002730
 H        -3.568543         1.887663         0.504214
 H        -3.609306         1.141121         3.034794
 H        -1.945942         3.014362         3.128436
 H        -0.598974         1.669292         3.381937
 H        -0.644804         2.647955         0.589982
 H        -0.198440        -0.263559         2.803855
 H        -0.997217        -1.697324         1.812366
