19
Iteration:  4350
 O         0.432744         0.168982         0.006447
 C        -0.805817         0.359440         0.791991
 C        -2.137572         0.002134         0.137387
 C        -2.659039         1.260076         0.998435
 C        -2.667808         1.018451         2.539811
 C        -1.594748         2.109031         2.615836
 C        -1.214150         1.876526         1.161754
 O        -2.092706        -0.309622         2.789275
 C        -0.758477        -0.388970         2.149076
 H         1.178394        -0.162083         0.576298
 H        -2.271080         0.226218        -0.950347
 H        -2.477558        -0.984054         0.306747
 H        -3.539788         1.830678         0.679617
 H        -3.641610         1.010360         3.072886
 H        -2.039318         3.075905         2.443596
 H        -0.961533         2.311936         3.410167
 H        -0.898964         2.650471         0.526948
 H         0.087717        -0.129650         2.813599
 H        -0.722527        -1.532032         2.211693
