19
Iteration:   834charge 0 multiplicity 1
 O         0.437747         0.253083         0.141877
 C        -0.794676         0.325172         0.902908
 C        -2.154557         0.313111         0.057855
 C        -2.633240         1.470089         0.925525
 C        -2.626348         1.030757         2.490795
 C        -1.513404         1.954628         2.777197
 C        -1.140752         1.832733         1.271265
 O        -2.152772        -0.373458         2.642447
 C        -0.904770        -0.649338         2.010082
 H         0.789007        -0.649606         0.361686
 H        -1.922994         0.747302        -0.930336
 H        -2.531106        -0.749009        -0.156418
 H        -3.477082         2.162468         0.555484
 H        -3.506481         0.987168         3.237377
 H        -1.947232         2.891644         2.949448
 H        -0.868771         1.832034         3.618681
 H        -0.702309         2.650199         0.727076
 H        -0.110101        -0.634288         2.698737
 H        -0.967691        -1.744020         1.717800
