19
Iteration:  2669charge 0 multiplicity 1
 O         0.518348         0.172501         0.276413
 C        -0.844075         0.453201         0.825804
 C        -2.164591         0.181666         0.076222
 C        -2.678199         1.281425         1.000689
 C        -2.632168         1.010619         2.502717
 C        -1.374470         2.015125         2.653397
 C        -1.268564         1.854921         1.140854
 O        -2.178614        -0.410537         2.702465
 C        -0.955139        -0.517584         2.083217
 H         0.830839         0.784426        -0.396840
 H        -2.171992         0.586042        -0.947054
 H        -2.343191        -0.864508        -0.113503
 H        -3.495463         2.014907         0.761922
 H        -3.459684         1.300199         3.130969
 H        -1.522721         3.030972         2.925951
 H        -0.472174         1.761938         3.152355
 H        -0.677011         2.539596         0.511126
 H        -0.154921        -0.209951         2.741990
 H        -0.866673        -1.608524         1.744339
