19
Iteration:  1053
 O         0.391069         0.000970         0.090257
 C        -0.749580         0.405383         0.888436
 C        -2.015208         0.330544        -0.003215
 C        -2.599677         1.363365         0.959586
 C        -2.713862         0.918770         2.465543
 C        -1.603146         2.038589         2.757160
 C        -1.205415         1.900445         1.261158
 O        -2.085707        -0.330394         2.801696
 C        -0.847716        -0.534714         2.067672
 H         0.294080         0.561577        -0.693405
 H        -1.797156         0.577660        -0.989404
 H        -2.619111        -0.597224        -0.036161
 H        -3.411482         2.134726         0.654776
 H        -3.690070         0.940417         2.955280
 H        -2.079624         2.991147         2.875288
 H        -0.881179         1.832221         3.540846
 H        -0.856364         2.686394         0.731667
 H         0.079108        -0.436983         2.739406
 H        -1.001495        -1.608312         1.760961
