19
Iteration:  1537
 O         0.473640         0.167779         0.314223
 C        -0.771459         0.356341         0.810852
 C        -2.104627         0.282159        -0.085677
 C        -2.696814         1.306715         0.970405
 C        -2.619316         0.986926         2.555827
 C        -1.449357         2.047659         2.658062
 C        -1.273417         1.786138         1.169530
 O        -2.118689        -0.294294         2.833326
 C        -0.912931        -0.633024         2.041411
 H         0.585176         0.608443        -0.537812
 H        -1.951626         0.764370        -1.081472
 H        -2.704649        -0.670348        -0.228147
 H        -3.597047         1.773634         0.703223
 H        -3.533736         1.161280         3.109924
 H        -1.832920         2.993675         2.652257
 H        -0.705236         2.172196         3.345654
 H        -0.856070         2.714503         0.626128
 H        -0.038855        -0.581786         2.560695
 H        -1.003495        -1.625878         1.619652
