19
Iteration:  2440charge 0 multiplicity 1
 O         0.439751        -0.015246         0.106165
 C        -0.703873         0.349070         0.769892
 C        -2.159197         0.202365         0.134560
 C        -2.667715         1.344067         0.977600
 C        -2.669942         0.979466         2.488170
 C        -1.495613         2.075074         2.817563
 C        -1.188384         1.895540         1.239425
 O        -2.178242        -0.338121         2.557547
 C        -0.838683        -0.441861         2.160559
 H         0.931058         0.712819        -0.304388
 H        -2.247152         0.509401        -0.909441
 H        -2.436226        -0.851659         0.299572
 H        -3.505116         1.962981         0.582300
 H        -3.540910         1.179642         3.054438
 H        -1.979064         3.072011         3.044793
 H        -0.829312         1.727788         3.658304
 H        -0.939756         2.734995         0.595075
 H        -0.134420         0.068715         2.785524
 H        -0.719718        -1.432652         2.074964
