19
Iteration:  1476charge 0 multiplicity 1
 O         0.416051         0.104629         0.082638
 C        -0.753999         0.312166         0.864212
 C        -2.148494         0.171346         0.076696
 C        -2.586290         1.392829         0.932801
 C        -2.713439         1.015215         2.451911
 C        -1.570551         2.065190         2.832781
 C        -1.105241         1.815813         1.200224
 O        -2.177287        -0.418290         2.609239
 C        -0.768597        -0.394522         2.220180
 H         0.179709         0.632078        -0.705072
 H        -2.133656         0.420744        -0.979014
 H        -2.789818        -0.652655         0.250295
 H        -3.543433         1.931356         0.702437
 H        -3.727595         0.966588         2.952997
 H        -1.941802         3.133600         2.750392
 H        -0.792066         1.776207         3.612215
 H        -0.560605         2.544126         0.682660
 H        -0.154293         0.097651         3.102780
 H        -0.491134        -1.489843         2.171185
