19
Iteration:   460
 O         0.522833         0.236016         0.267240
 C        -0.816646         0.323839         0.801759
 C        -2.123600         0.374849        -0.049020
 C        -2.735313         1.327546         1.036178
 C        -2.556887         0.983849         2.558110
 C        -1.428416         2.092376         2.701422
 C        -1.224847         1.799289         1.212539
 O        -2.149896        -0.363276         2.674249
 C        -0.968089        -0.649100         1.985367
 H         0.867045        -0.563546         0.665649
 H        -2.074640         0.897257        -0.955300
 H        -2.636734        -0.524845        -0.298391
 H        -3.715208         1.920368         0.834396
 H        -3.594844         1.036268         3.078622
 H        -1.940200         3.040174         2.673065
 H        -0.610540         2.094273         3.476996
 H        -0.700828         2.385659         0.475457
 H        -0.161241        -0.611075         2.739771
 H        -1.048415        -1.779373         1.849924
