19
Iteration:  1645
 O         0.379391         0.058520         0.149128
 C        -0.796891         0.305300         0.832365
 C        -2.080320         0.258599         0.021711
 C        -2.604994         1.376615         0.939710
 C        -2.664241         0.944110         2.411444
 C        -1.621713         2.025731         2.760029
 C        -1.152642         1.885597         1.264213
 O        -2.103514        -0.311710         2.786801
 C        -0.799432        -0.497911         2.105306
 H         0.281008         0.440330        -0.766688
 H        -2.037203         0.668424        -0.965688
 H        -2.644261        -0.671825         0.216280
 H        -3.239681         2.114594         0.476086
 H        -3.612622         0.980323         2.912679
 H        -2.245343         2.979876         2.756283
 H        -0.888812         1.853537         3.588522
 H        -0.728244         2.789300         0.712041
 H         0.196080        -0.240696         2.732142
 H        -0.747428        -1.560650         1.913134
