19
Iteration:   755
 O         0.431102         0.353022         0.181805
 C        -0.812246         0.310217         0.849306
 C        -2.169306         0.251497         0.046244
 C        -2.610184         1.395687         0.976875
 C        -2.583112         1.054842         2.479422
 C        -1.411431         1.899728         2.764130
 C        -1.124289         1.823165         1.215787
 O        -2.294919        -0.394065         2.589783
 C        -0.877118        -0.588611         2.087817
 H         0.761141        -0.567426         0.387936
 H        -1.895094         0.698397        -0.948037
 H        -2.664606        -0.698171         0.284770
 H        -3.465974         2.140670         0.596219
 H        -3.485502         1.207261         3.147510
 H        -1.836501         2.877906         2.957335
 H        -0.746401         1.660363         3.560798
 H        -0.618644         2.583154         0.633820
 H        -0.189923        -0.461535         2.874814
 H        -0.887041        -1.649435         1.677751
