19
Iteration:  2096charge 0 multiplicity 1
 O         0.548386         0.186815         0.290755
 C        -0.780528         0.276122         0.785783
 C        -2.157170         0.174133        -0.014403
 C        -2.710732         1.352859         1.009047
 C        -2.663665         1.027214         2.560127
 C        -1.454501         2.123406         2.661207
 C        -1.206091         1.849697         1.170762
 O        -2.094123        -0.340331         2.768519
 C        -0.976878        -0.594096         2.007034
 H         0.673523         0.403724        -0.659749
 H        -2.045606         0.701115        -0.974388
 H        -2.719409        -0.750916         0.017220
 H        -3.520664         1.961881         0.756387
 H        -3.472969         1.052337         3.244387
 H        -2.065985         3.147742         2.823860
 H        -0.691821         1.799854         3.381361
 H        -0.882517         2.594217         0.508542
 H        -0.133442        -0.397590         2.693686
 H        -0.906475        -1.684295         1.675213
