19
Iteration:   573
 O         0.490944         0.034761         0.297963
 C        -0.783008         0.437875         0.796016
 C        -2.129255         0.309559        -0.033126
 C        -2.674559         1.368865         0.937448
 C        -2.611581         0.936603         2.471042
 C        -1.479449         1.999968         2.760141
 C        -1.268807         1.894923         1.310460
 O        -2.107023        -0.310426         2.748068
 C        -0.961718        -0.577108         1.946225
 H         0.949678         0.673611        -0.262285
 H        -2.162171         0.424703        -1.063877
 H        -2.587699        -0.705484         0.058288
 H        -3.420598         2.049475         0.703561
 H        -3.596785         1.177335         2.920243
 H        -1.712081         3.019036         3.160647
 H        -0.631521         1.760439         3.524276
 H        -0.908637         2.540131         0.498440
 H        -0.012010        -0.506973         2.516747
 H        -1.057774        -1.587941         1.517622
