19
Iteration:  2311
 O         0.428276         0.097905         0.043551
 C        -0.799112         0.348665         0.821550
 C        -2.169870         0.160338         0.133808
 C        -2.643872         1.339765         0.967939
 C        -2.698504         0.948775         2.443631
 C        -1.538429         2.018795         2.763536
 C        -1.017897         1.843898         1.219100
 O        -2.227516        -0.330029         2.642538
 C        -0.805449        -0.427913         2.223361
 H         0.617703         0.825557        -0.553146
 H        -2.054363         0.500321        -0.859676
 H        -2.736735        -0.767221         0.159269
 H        -3.418029         2.061598         0.682717
 H        -3.660087         1.169872         3.007247
 H        -2.009188         3.000967         2.797289
 H        -0.815288         1.895538         3.620816
 H        -0.338165         2.579437         0.755031
 H        -0.084928         0.054506         2.985843
 H        -0.536335        -1.518661         2.107423
