19
Iteration:  4943
 O         0.299465         0.081763         0.098464
 C        -0.788057         0.407933         0.862074
 C        -2.061567         0.082547         0.187951
 C        -2.687571         1.347289         0.904290
 C        -2.659910         0.953130         2.480232
 C        -1.560742         2.102572         2.667008
 C        -1.265216         1.951132         1.113390
 O        -2.053047        -0.375218         2.695206
 C        -0.741457        -0.420577         2.132014
 H         1.134381         0.102729         0.630052
 H        -2.118475         0.005343        -0.908907
 H        -2.615980        -0.815684         0.468873
 H        -3.721457         1.817522         0.477858
 H        -3.498967         1.119850         3.183766
 H        -1.921663         3.088871         2.939590
 H        -0.756921         1.779415         3.402915
 H        -0.610475         2.740165         0.656650
 H         0.004472         0.104939         2.818160
 H        -0.566094        -1.452055         2.018809
