19
Iteration:   395
 O         0.389936         0.101646         0.017182
 C        -0.743167         0.362517         0.855211
 C        -2.078938         0.279196         0.207322
 C        -2.547000         1.458751         0.981206
 C        -2.698962         0.987731         2.500434
 C        -1.585018         2.028778         2.774753
 C        -1.103096         1.808811         1.285796
 O        -2.268474        -0.428295         2.564902
 C        -0.838335        -0.528891         2.065672
 H         1.141794         0.677769         0.288899
 H        -1.994558         0.604814        -0.812590
 H        -2.722343        -0.603216         0.282899
 H        -3.342862         2.030440         0.528132
 H        -3.657040         1.104966         3.125544
 H        -2.103861         2.993927         2.772383
 H        -0.975337         1.708114         3.702338
 H        -0.493665         2.531922         0.800842
 H        -0.054732        -0.189699         2.721709
 H        -0.510889        -1.517721         1.782132
