19
Iteration:   854
 O         0.429103         0.406689         0.190057
 C        -0.779389         0.353366         0.841852
 C        -2.123980         0.238307         0.014678
 C        -2.580189         1.356420         0.997514
 C        -2.598834         0.964546         2.484270
 C        -1.351859         2.009773         2.714620
 C        -1.123302         1.787965         1.232098
 O        -2.326554        -0.461086         2.664281
 C        -0.996404        -0.584617         2.038057
 H         0.751808        -0.518738         0.075395
 H        -2.066414         0.772355        -0.970625
 H        -2.764294        -0.670048         0.192077
 H        -3.434626         2.212064         0.810043
 H        -3.644552         1.155300         2.939598
 H        -1.562910         3.042359         3.017108
 H        -0.610406         1.820101         3.499956
 H        -0.528986         2.507864         0.704031
 H        -0.204937        -0.349634         2.823788
 H        -0.831266        -1.721014         1.917855
