19
Iteration:  2615
 O         0.373909         0.079333         0.109019
 C        -0.795962         0.337884         0.831743
 C        -2.123988         0.242992         0.124128
 C        -2.579145         1.341847         0.910332
 C        -2.660282         0.964371         2.462493
 C        -1.640974         2.082891         2.760366
 C        -1.131558         1.901896         1.229628
 O        -2.114079        -0.307144         2.731499
 C        -0.791754        -0.583105         2.086089
 H         0.769655         0.949504        -0.083874
 H        -1.926079         0.474627        -0.991263
 H        -2.641856        -0.772303         0.251244
 H        -3.491282         1.942438         0.654047
 H        -3.597469         1.084456         3.032929
 H        -2.045225         3.084225         2.798887
 H        -0.895429         2.023779         3.579168
 H        -0.691567         2.665420         0.563369
 H         0.111301        -0.736236         2.691552
 H        -0.962978        -1.655148         1.759089
