19
Iteration:  1281charge 0 multiplicity 1
 O         0.526703         0.111281         0.318121
 C        -0.827173         0.420012         0.707108
 C        -2.138723         0.245833        -0.093671
 C        -2.683474         1.267195         0.947273
 C        -2.591889         0.949947         2.547111
 C        -1.439116         2.013076         2.688109
 C        -1.254068         1.891555         1.206347
 O        -2.143437        -0.305655         2.886795
 C        -0.937892        -0.537700         2.010451
 H         0.883144         0.389590        -0.522359
 H        -2.004434         0.785447        -1.127724
 H        -2.621252        -0.751530        -0.358297
 H        -3.647232         1.814582         0.852050
 H        -3.523767         1.107341         3.099212
 H        -1.810241         3.047372         2.778599
 H        -0.663458         1.934810         3.496226
 H        -0.908412         2.857037         0.617471
 H        -0.048865        -0.644819         2.601420
 H        -1.214159        -1.546794         1.706038
