19
Iteration:  2173
 O         0.428647         0.132745         0.074926
 C        -0.808505         0.301349         0.809879
 C        -2.130128         0.126593         0.164528
 C        -2.537502         1.414075         0.948904
 C        -2.713464         0.976182         2.516327
 C        -1.584119         2.039710         2.732869
 C        -1.077912         1.790498         1.234167
 O        -2.201906        -0.326609         2.660825
 C        -0.813026        -0.459192         2.131456
 H         0.369276         0.834385        -0.621209
 H        -2.264788         0.334967        -0.948555
 H        -2.666910        -0.826431         0.374967
 H        -3.233878         2.118872         0.561408
 H        -3.727108         0.907654         2.865582
 H        -1.963241         3.186934         2.720717
 H        -0.761194         2.038119         3.524935
 H        -0.522967         2.613041         0.820675
 H        -0.130545         0.073134         3.001124
 H        -0.647474        -1.572393         2.029490
