19
Iteration:  4524charge 0 multiplicity 1
 O         0.308416         0.122028         0.007633
 C        -0.800912         0.356741         0.875783
 C        -2.110084         0.045825         0.125856
 C        -2.648771         1.331272         0.856907
 C        -2.605627         0.912389         2.453073
 C        -1.616683         2.198446         2.683430
 C        -1.255699         1.928105         1.143624
 O        -2.034751        -0.353836         2.846583
 C        -0.747339        -0.453333         2.201172
 H         1.152663         0.071308         0.472120
 H        -2.007931         0.284652        -0.958961
 H        -2.366641        -0.981766         0.302729
 H        -3.449031         1.998067         0.499208
 H        -3.500801         0.878461         3.117389
 H        -2.351789         3.071599         2.681112
 H        -0.835182         2.317710         3.431573
 H        -0.888586         2.670538         0.475328
 H         0.092465        -0.063113         2.750435
 H        -0.703448        -1.488720         2.040532
