19
Iteration:  4877
 O         0.397696         0.242718         0.087627
 C        -0.792656         0.329818         0.884392
 C        -2.081224         0.133508         0.064184
 C        -2.699815         1.275499         0.956762
 C        -2.637483         0.931959         2.473204
 C        -1.570054         2.119954         2.556542
 C        -1.256619         1.859236         1.133149
 O        -1.999466        -0.221285         2.957255
 C        -0.888887        -0.579452         2.096070
 H         1.203911         0.118119         0.601127
 H        -1.885872         0.376171        -1.044718
 H        -2.680857        -0.765553         0.120595
 H        -3.719675         1.785211         0.578540
 H        -3.650105         0.828121         2.996074
 H        -2.030984         3.112465         2.625884
 H        -0.696009         1.926510         3.270285
 H        -0.732085         2.480161         0.364710
 H         0.006088        -0.637301         2.730736
 H        -0.962343        -1.518743         1.633505
