19
Iteration:  1590
 O         0.453891         0.074376         0.215271
 C        -0.758211         0.444864         0.859991
 C        -2.108988         0.160610         0.121324
 C        -2.712928         1.339653         0.954296
 C        -2.635736         0.973963         2.495059
 C        -1.500327         2.069493         2.718434
 C        -1.168604         1.888695         1.166496
 O        -2.179832        -0.397224         2.685262
 C        -0.912318        -0.482574         2.054475
 H         0.642826         0.652807        -0.542537
 H        -2.088871         0.328522        -0.941348
 H        -2.628576        -0.799581         0.227544
 H        -3.406737         2.080539         0.580820
 H        -3.504626         1.081778         3.064133
 H        -1.809646         3.088602         3.008405
 H        -0.575133         1.724769         3.255830
 H        -0.641546         2.743460         0.637919
 H        -0.009216        -0.169081         2.784418
 H        -0.700015        -1.424764         1.640853
