19
Iteration:  3885charge 0 multiplicity 1
 O         0.399489         0.393672         0.212105
 C        -0.852941         0.290828         0.911540
 C        -2.109196         0.101391         0.083335
 C        -2.660342         1.244458         0.846479
 C        -2.615166         0.938915         2.468272
 C        -1.462701         2.116300         2.561283
 C        -1.277639         1.839677         1.103864
 O        -2.057021        -0.269116         2.858696
 C        -0.847529        -0.562088         2.181617
 H         0.545421        -0.277242        -0.476449
 H        -1.958159         0.255172        -0.989115
 H        -2.697453        -0.776061         0.517389
 H        -3.597989         1.755519         0.542980
 H        -3.469153         1.044758         3.138475
 H        -1.911524         3.088038         2.778647
 H        -0.575802         1.882226         3.182289
 H        -0.906450         2.515929         0.282137
 H        -0.008126        -0.509304         2.824724
 H        -0.889740        -1.706797         1.758506
