19
Iteration:  1684
 O         0.510944         0.220517         0.335968
 C        -0.746087         0.422237         0.761010
 C        -2.140654         0.197438         0.071551
 C        -2.700380         1.283312         1.029178
 C        -2.589640         1.023635         2.549703
 C        -1.384533         2.060647         2.639006
 C        -1.235188         1.817098         1.133621
 O        -2.199965        -0.349803         2.726370
 C        -0.956829        -0.623236         2.018119
 H         0.638485         0.554657        -0.548547
 H        -2.232768         0.486605        -1.014479
 H        -2.481772        -0.824723        -0.069879
 H        -3.481353         1.996449         0.655451
 H        -3.475797         1.257718         3.161648
 H        -2.024725         2.897226         2.864902
 H        -0.516626         1.942522         3.301815
 H        -1.046772         2.599877         0.414838
 H        -0.155324        -0.413456         2.711156
 H        -1.052872        -1.717334         1.671306
