19
Iteration:  4711
 O         0.569222         0.254834         0.216155
 C        -0.837933         0.349093         0.769734
 C        -2.131035         0.064183         0.038414
 C        -2.820432         1.181987         0.953408
 C        -2.557209         1.013878         2.587362
 C        -1.465788         2.036440         2.579940
 C        -1.371821         1.885012         1.067898
 O        -2.136125        -0.291602         2.841775
 C        -0.778331        -0.435163         2.072615
 H         0.850803        -0.584290         0.646018
 H        -2.238001         0.409806        -1.010826
 H        -2.686548        -0.805174         0.216152
 H        -3.742068         1.846539         0.590816
 H        -3.498775         1.279763         3.248552
 H        -1.805080         3.087701         2.764346
 H        -0.549720         1.718152         3.115646
 H        -0.994688         2.777077         0.553993
 H        -0.049537         0.030494         2.836657
 H        -0.561046        -1.427882         1.839481
