19
Iteration:  1474
 O         0.410517         0.118147         0.082774
 C        -0.757547         0.321373         0.857113
 C        -2.143601         0.177950         0.078388
 C        -2.595598         1.369672         0.930103
 C        -2.703935         1.012008         2.445360
 C        -1.561376         2.066067         2.826629
 C        -1.108136         1.818556         1.207650
 O        -2.186287        -0.422965         2.625906
 C        -0.772727        -0.401871         2.225048
 H         0.236468         0.592968        -0.734112
 H        -2.120711         0.390025        -1.001364
 H        -2.827241        -0.662634         0.225439
 H        -3.442004         1.989198         0.698514
 H        -3.725820         0.977612         2.890632
 H        -1.886340         3.160038         2.781441
 H        -0.800281         1.837678         3.611498
 H        -0.554463         2.565865         0.664807
 H        -0.185457         0.064413         3.073009
 H        -0.462139        -1.525500         2.165727
