19
Iteration:    77charge 0 multiplicity 1
 O         0.466879         0.124692         0.130212
 C        -0.791684         0.338593         0.807120
 C        -2.051372         0.404956         0.013203
 C        -2.541144         1.446617         0.980256
 C        -2.633394         0.886204         2.490515
 C        -1.591060         2.046302         2.811145
 C        -1.156737         1.906570         1.336542
 O        -2.179660        -0.430903         2.686798
 C        -0.953310        -0.584027         2.034938
 H         0.296807        -0.122384        -0.817536
 H        -2.135861         0.735184        -1.081613
 H        -2.634103        -0.551341         0.170904
 H        -3.368294         2.040005         0.759378
 H        -3.622061         0.921648         2.947583
 H        -2.099172         2.982438         3.048640
 H        -0.789470         2.025480         3.562062
 H        -0.541203         2.598676         0.759315
 H         0.039993        -0.531166         2.711898
 H        -1.011433        -1.657475         1.746165
