19
Iteration:  2290charge 0 multiplicity 1
 O         0.433240         0.142860         0.084742
 C        -0.768959         0.308822         0.853295
 C        -2.085284         0.149621         0.100208
 C        -2.576558         1.346409         0.921011
 C        -2.620240         1.053847         2.544892
 C        -1.520375         2.071788         2.702013
 C        -1.198995         1.833913         1.267465
 O        -2.230547        -0.334722         2.690106
 C        -0.883118        -0.529924         2.130066
 H         0.559090         0.949347        -0.456035
 H        -2.109375         0.189056        -0.976746
 H        -2.588683        -0.786359         0.363071
 H        -3.275722         2.050028         0.459282
 H        -3.655204         1.049770         2.995611
 H        -1.865363         3.031322         2.918651
 H        -0.745305         1.797268         3.430840
 H        -0.855541         2.696730         0.684551
 H        -0.079714        -0.290402         2.774191
 H        -0.683861        -1.549590         1.743660
