19
Iteration:  1588charge 0 multiplicity 1
 O         0.467992         0.083909         0.227640
 C        -0.773285         0.466249         0.856745
 C        -2.118617         0.162445         0.104462
 C        -2.726808         1.324696         0.937988
 C        -2.622333         0.964614         2.488324
 C        -1.493108         2.061373         2.705385
 C        -1.163831         1.890129         1.165812
 O        -2.182016        -0.393004         2.700258
 C        -0.918555        -0.490021         2.062176
 H         0.605027         0.656053        -0.521932
 H        -2.162803         0.305086        -0.961941
 H        -2.579469        -0.799680         0.256714
 H        -3.408883         2.128795         0.571112
 H        -3.480060         1.089714         3.096208
 H        -1.738769         3.139160         3.075041
 H        -0.524357         1.790383         3.359053
 H        -0.654140         2.655588         0.642740
 H         0.007135        -0.273383         2.789275
 H        -0.742911        -1.421609         1.561464
