19
Iteration:  1088charge 0 multiplicity 1
 O         0.454522         0.040850         0.132106
 C        -0.735097         0.360785         0.825154
 C        -2.189384         0.254434         0.100873
 C        -2.644134         1.366187         0.993015
 C        -2.640948         0.940879         2.526782
 C        -1.544110         2.024880         2.739109
 C        -1.152960         1.824959         1.253920
 O        -2.171724        -0.368677         2.567171
 C        -0.851210        -0.428580         2.097396
 H         0.819102         0.894397        -0.118614
 H        -2.107340         0.497592        -0.927691
 H        -2.685674        -0.750084         0.293752
 H        -3.389690         2.195055         0.828579
 H        -3.579815         0.996970         3.035283
 H        -2.003477         2.982555         2.743657
 H        -0.922991         2.134494         3.590133
 H        -0.704655         2.681184         0.689269
 H        -0.070193        -0.055243         2.875177
 H        -0.683494        -1.581191         1.920954
