19
Iteration:  4043charge 0 multiplicity 1
 O         0.435282         0.227153         0.221863
 C        -0.802364         0.341573         0.786737
 C        -2.113321         0.076999        -0.022072
 C        -2.753489         1.220655         0.966330
 C        -2.610996         0.988441         2.517112
 C        -1.436433         2.081298         2.615593
 C        -1.318123         1.848355         1.052585
 O        -2.066892        -0.300736         2.904128
 C        -0.813768        -0.418283         2.143653
 H         0.580112        -0.543268        -0.372830
 H        -1.962005         0.586476        -1.024542
 H        -2.587435        -0.923147        -0.095556
 H        -3.598495         1.878506         0.850832
 H        -3.550958         1.112689         3.078663
 H        -1.968770         3.052010         2.853711
 H        -0.635985         2.095625         3.392883
 H        -1.052219         2.659973         0.427295
 H        -0.011312         0.022681         2.665120
 H        -0.819556        -1.544623         2.057314
