19
Iteration:  2165
 O         0.454195         0.125825         0.069951
 C        -0.787348         0.308103         0.831260
 C        -2.200599         0.138306         0.091459
 C        -2.547760         1.373366         0.999978
 C        -2.714207         0.999569         2.474353
 C        -1.561848         2.068717         2.755963
 C        -1.095645         1.805119         1.208180
 O        -2.173087        -0.367663         2.652640
 C        -0.858021        -0.429074         2.221923
 H         0.457370         0.817933        -0.638159
 H        -2.015948         0.384484        -0.964854
 H        -2.635265        -0.834528         0.342778
 H        -3.166538         2.221937         0.579559
 H        -3.648779         0.958872         3.065957
 H        -1.972653         3.200523         2.643950
 H        -0.908840         1.847844         3.711295
 H        -0.646726         2.599315         0.553292
 H         0.077632        -0.124397         2.738218
 H        -0.751245        -1.494613         1.969918
