19
Iteration:  2419
 O         0.457946         0.120246         0.215872
 C        -0.799950         0.350729         0.865339
 C        -2.138020         0.159709         0.068686
 C        -2.639944         1.432340         0.940207
 C        -2.661948         0.986218         2.501259
 C        -1.477423         2.010413         2.665355
 C        -1.187730         1.854076         1.181315
 O        -2.205008        -0.376369         2.731663
 C        -0.854150        -0.495697         2.062465
 H         0.542829         0.791167        -0.499821
 H        -1.994381         0.499904        -0.915308
 H        -2.636393        -0.795175         0.206769
 H        -3.494768         2.122405         0.823480
 H        -3.497790         1.104049         3.202665
 H        -1.860219         3.056222         2.774627
 H        -0.614304         1.729149         3.354310
 H        -0.514685         2.557681         0.690068
 H        -0.021602        -0.253358         2.732686
 H        -0.747151        -1.409273         1.618692
