19
Iteration:  4367charge 0 multiplicity 1
 O         0.333081         0.092366         0.058309
 C        -0.746660         0.383952         0.880551
 C        -2.104450         0.122804         0.156728
 C        -2.716457         1.229892         0.943206
 C        -2.604499         0.983648         2.501183
 C        -1.598260         2.169105         2.627290
 C        -1.299179         1.843490         1.089953
 O        -2.054610        -0.332881         2.716756
 C        -0.716068        -0.350424         2.217811
 H         0.882940        -0.625611         0.448034
 H        -1.907628         0.405035        -0.873305
 H        -2.643832        -0.904124         0.151001
 H        -3.540653         1.814064         0.535108
 H        -3.468710         0.960723         3.185159
 H        -2.256156         2.993945         2.996481
 H        -0.729481         1.969157         3.348416
 H        -0.819656         2.660557         0.437825
 H        -0.103130         0.189431         2.956351
 H        -0.342781        -1.317215         1.966721
