19
Iteration:  2682charge 0 multiplicity 1
 O         0.442251         0.163849         0.299941
 C        -0.785190         0.344391         0.838746
 C        -2.100363         0.202538         0.109262
 C        -2.692276         1.360795         0.931764
 C        -2.603363         0.941566         2.532882
 C        -1.424802         2.065213         2.666475
 C        -1.212743         1.855960         1.186620
 O        -2.169495        -0.327038         2.708782
 C        -0.886734        -0.529762         1.995621
 H         0.357243         0.617264        -0.568640
 H        -1.977344         0.589247        -0.958139
 H        -2.745809        -0.705320         0.281553
 H        -3.563136         1.829648         0.407990
 H        -3.565805         0.935610         3.100120
 H        -1.900921         2.977465         2.934195
 H        -0.583712         1.813066         3.323524
 H        -0.877385         2.645268         0.527272
 H        -0.010023        -0.590396         2.668560
 H        -0.925968        -1.504021         1.577599
