19
Iteration:  3018charge 0 multiplicity 1
 O         0.400827         0.210396         0.084351
 C        -0.789455         0.324676         0.894786
 C        -2.076837         0.213722         0.138704
 C        -2.588181         1.452739         0.892012
 C        -2.719894         0.940448         2.412742
 C        -1.581695         2.005972         2.784900
 C        -1.104054         1.791925         1.275460
 O        -2.141220        -0.328048         2.687324
 C        -0.817236        -0.532045         2.125892
 H         0.175454         0.003432        -0.848152
 H        -2.091088         0.283631        -0.980521
 H        -2.806478        -0.592751         0.321458
 H        -3.463713         1.984173         0.441043
 H        -3.708623         0.954682         2.892694
 H        -1.978663         3.050416         2.810942
 H        -0.868526         1.938737         3.595545
 H        -0.535457         2.628099         0.787846
 H         0.078226        -0.249471         2.896459
 H        -0.720360        -1.600373         2.004051
