19
Iteration:  1574charge 0 multiplicity 1
 O         0.498277         0.191978         0.325283
 C        -0.815440         0.377397         0.797514
 C        -2.183630         0.180274         0.019327
 C        -2.636395         1.335015         0.923130
 C        -2.583951         1.000457         2.514333
 C        -1.388111         2.013760         2.662672
 C        -1.247044         1.904258         1.186811
 O        -2.163558        -0.320488         2.762483
 C        -0.906265        -0.579553         2.028735
 H         0.596996         0.653067        -0.548604
 H        -2.176750         0.429514        -1.075886
 H        -2.555476        -0.839051         0.242320
 H        -3.640073         1.769542         0.641037
 H        -3.572063         1.167048         3.080914
 H        -2.044924         2.962377         2.773171
 H        -0.653198         1.661632         3.474337
 H        -0.841418         2.650635         0.540188
 H        -0.100191        -0.627396         2.744347
 H        -1.129598        -1.661636         1.702902
