19
Iteration:  1508charge 0 multiplicity 1
 O         0.418005        -0.024140         0.170744
 C        -0.731285         0.434288         0.840192
 C        -2.117810         0.211146         0.046081
 C        -2.634929         1.361785         0.962325
 C        -2.702713         0.976953         2.461617
 C        -1.572830         2.099376         2.769502
 C        -1.208134         1.893106         1.227597
 O        -2.124253        -0.376579         2.702807
 C        -0.801942        -0.474050         2.077897
 H         0.632673         0.612435        -0.513789
 H        -2.076889         0.465509        -1.022563
 H        -2.590646        -0.749198         0.275210
 H        -3.577447         1.864462         0.649083
 H        -3.727594         0.960514         2.943979
 H        -1.877547         3.238883         2.905662
 H        -0.777680         1.966789         3.614512
 H        -0.807067         2.711488         0.690819
 H         0.117511        -0.281827         2.799329
 H        -0.676789        -1.531647         1.621721
