19
Iteration:  3168charge 0 multiplicity 1
 O         0.368576         0.240512         0.175654
 C        -0.827062         0.352755         0.870007
 C        -2.105256         0.263277        -0.025185
 C        -2.577958         1.365143         0.879403
 C        -2.675223         0.908951         2.372899
 C        -1.557600         1.989294         2.712544
 C        -1.139620         1.807679         1.309396
 O        -2.072556        -0.313644         2.799167
 C        -0.863629        -0.510563         2.155118
 H         0.175639        -0.501226        -0.449021
 H        -1.804364         0.667122        -1.043052
 H        -2.588078        -0.720847        -0.028621
 H        -3.411350         2.139892         0.669019
 H        -3.703665         1.032961         2.791481
 H        -2.061836         2.941785         2.998540
 H        -0.757550         1.681986         3.439033
 H        -0.605257         2.477150         0.596642
 H        -0.127551        -0.109322         2.855485
 H        -0.791053        -1.666561         1.850013
