19
Iteration:   102
 O         0.435155         0.076717         0.057520
 C        -0.779559         0.406579         0.845586
 C        -2.059040         0.313619         0.014566
 C        -2.662035         1.453749         0.933036
 C        -2.783111         1.037133         2.442456
 C        -1.595252         1.903664         2.910362
 C        -1.123746         1.777856         1.428589
 O        -2.099035        -0.335518         2.640183
 C        -0.816926        -0.454413         2.021978
 H         0.100507        -0.750657        -0.394333
 H        -1.911265         0.771337        -0.880642
 H        -2.530912        -0.689929        -0.213662
 H        -3.349210         2.279344         0.499660
 H        -3.738329         0.910883         3.063950
 H        -1.656244         2.924002         3.091458
 H        -1.036548         1.511969         3.760458
 H        -0.569278         2.608531         1.029916
 H         0.088179        -0.303669         2.628814
 H        -0.834775        -1.489530         1.651036
