19
Iteration:  3654
 O         0.416046         0.179388         0.150128
 C        -0.806646         0.358470         0.863012
 C        -2.211585         0.090100         0.131593
 C        -2.650762         1.328395         0.917972
 C        -2.584049         1.005684         2.461884
 C        -1.588371         2.097074         2.678821
 C        -1.243713         1.830841         1.202716
 O        -2.085528        -0.314829         2.699473
 C        -0.768387        -0.460147         2.057110
 H         1.159513        -0.116173         0.723477
 H        -2.183063         0.072141        -1.001532
 H        -2.645688        -0.895621         0.381494
 H        -3.599863         1.840081         0.735729
 H        -3.582360         1.175853         2.968354
 H        -1.997916         3.113999         2.579480
 H        -0.950499         1.917325         3.567967
 H        -0.708162         2.520747         0.468043
 H         0.193137        -0.100352         2.757394
 H        -0.630772        -1.476370         2.022914
