19
Iteration:   922charge 0 multiplicity 1
 O         0.437717         0.008661         0.124786
 C        -0.738177         0.337044         0.832643
 C        -2.130737         0.376071        -0.096184
 C        -2.529535         1.439763         0.948511
 C        -2.605534         0.899960         2.560258
 C        -1.658341         2.055677         2.773338
 C        -1.170597         1.906054         1.367659
 O        -2.113794        -0.353513         2.732013
 C        -0.929223        -0.611855         2.042811
 H         0.262702         0.628552        -0.640666
 H        -1.850401         0.701097        -1.042727
 H        -2.572511        -0.643357        -0.061071
 H        -3.437842         2.140381         0.807064
 H        -3.596717         0.968220         3.102862
 H        -2.200383         2.918305         2.738938
 H        -1.043811         2.145115         3.620758
 H        -0.689284         2.673390         0.798290
 H        -0.093895        -0.326869         2.641354
 H        -0.707589        -1.643933         1.742895
