19
Iteration:   873charge 0 multiplicity 1
 O         0.554466         0.333043         0.216115
 C        -0.824499         0.382769         0.740689
 C        -2.168471         0.201158         0.025457
 C        -2.665813         1.395574         0.965677
 C        -2.605822         1.004867         2.575553
 C        -1.375380         1.881817         2.744873
 C        -1.153900         1.864367         1.235671
 O        -2.307531        -0.395222         2.612582
 C        -0.984278        -0.566809         2.138649
 H         0.723622        -0.312919        -0.481169
 H        -1.976587         0.608139        -1.006153
 H        -2.636413        -0.741857         0.179147
 H        -3.397847         2.014048         0.468994
 H        -3.393753         1.277779         3.232687
 H        -1.800110         2.892578         3.196237
 H        -0.494598         1.579473         3.412338
 H        -0.601058         2.551013         0.559156
 H        -0.126262        -0.394639         2.904940
 H        -0.813799        -1.552086         1.716959
