19
Iteration:    96charge 0 multiplicity 1
 O         0.440289         0.071728         0.080738
 C        -0.740765         0.462296         0.837948
 C        -2.115217         0.276274         0.037079
 C        -2.637446         1.443979         0.969515
 C        -2.757262         1.006616         2.435549
 C        -1.616946         1.881587         2.860617
 C        -1.068219         1.812259         1.391199
 O        -2.133405        -0.329074         2.686524
 C        -0.848875        -0.499057         1.991597
 H         0.013982        -0.601712        -0.492586
 H        -1.779654         0.986428        -0.921299
 H        -2.572640        -0.655123        -0.221317
 H        -3.279234         2.248586         0.621752
 H        -3.639931         0.965352         3.007914
 H        -1.810101         3.049604         3.001093
 H        -1.209406         1.562838         3.859962
 H        -0.658469         2.793043         0.999174
 H         0.144022        -0.444507         2.586803
 H        -0.598711        -1.509090         1.561750
