19
Iteration:  3875
 O         0.389421         0.374987         0.223336
 C        -0.790753         0.332354         0.854569
 C        -2.108874         0.037839         0.098233
 C        -2.715744         1.286602         0.853859
 C        -2.601999         1.003426         2.533226
 C        -1.463875         2.033233         2.569591
 C        -1.285606         1.862543         1.057491
 O        -2.081393        -0.327196         2.860359
 C        -0.841828        -0.486869         2.184673
 H         0.395506        -0.432072        -0.339085
 H        -2.011768         0.213268        -0.984735
 H        -2.438993        -1.113320         0.092145
 H        -3.613465         1.921159         0.599692
 H        -3.606827         1.027397         2.893200
 H        -1.691283         3.094122         2.809135
 H        -0.636542         1.886012         3.308608
 H        -0.679830         2.569178         0.425833
 H         0.070522        -0.279881         2.709195
 H        -0.910243        -1.582497         1.897518
