19
Iteration:  3812
 O         0.277647         0.134961         0.075225
 C        -0.768611         0.401637         0.866681
 C        -2.090522         0.123420         0.098087
 C        -2.644200         1.322486         0.899449
 C        -2.614907         0.911649         2.464967
 C        -1.645214         2.120620         2.649223
 C        -1.235827         1.872878         1.155079
 O        -1.997922        -0.305574         2.789361
 C        -0.776459        -0.459553         2.156722
 H         1.010888        -0.431729         0.412533
 H        -1.890376         0.411042        -0.900672
 H        -2.600934        -0.780620         0.444887
 H        -3.594148         1.779699         0.485657
 H        -3.638995         0.846478         2.803256
 H        -2.211577         3.116510         2.756632
 H        -0.939744         2.172492         3.535969
 H        -0.665621         2.689460         0.759834
 H         0.111411        -0.112322         2.903112
 H        -0.647083        -1.590158         2.037139
