19
Iteration:  4464charge 0 multiplicity 1
 O         0.429520         0.289836         0.179808
 C        -0.811780         0.379954         0.801186
 C        -2.141240         0.044402         0.114562
 C        -2.716292         1.200655         0.953800
 C        -2.634256         0.960419         2.511295
 C        -1.546998         2.096194         2.553214
 C        -1.196985         1.845091         1.112721
 O        -2.098351        -0.278615         2.875408
 C        -0.785533        -0.435134         2.146346
 H         0.443748        -0.525944        -0.373219
 H        -2.341284         0.243196        -0.913962
 H        -2.477429        -1.007760         0.230413
 H        -3.562410         1.792577         0.555537
 H        -3.546142         1.212437         3.049697
 H        -1.874098         3.091532         2.752205
 H        -0.673354         1.971652         3.245812
 H        -0.753089         2.543369         0.333201
 H         0.267198        -0.176971         2.613934
 H        -0.682580        -1.527788         1.875642
