19
Iteration:   913
 O         0.413982         0.053192         0.191653
 C        -0.764169         0.350767         0.824559
 C        -2.099800         0.311920        -0.030619
 C        -2.598409         1.440884         0.903972
 C        -2.590221         0.925514         2.555157
 C        -1.622576         2.071462         2.838822
 C        -1.144879         1.928727         1.285124
 O        -2.135530        -0.390635         2.708250
 C        -0.884907        -0.576385         2.005454
 H         0.329264         0.271841        -0.779254
 H        -1.947027         0.710123        -1.036707
 H        -2.728805        -0.653786        -0.123011
 H        -3.401126         2.089499         0.667894
 H        -3.536222         0.902257         3.079501
 H        -2.224409         2.951174         2.901664
 H        -0.936663         1.902587         3.646698
 H        -0.449659         2.747875         0.919143
 H        -0.014600        -0.464991         2.618482
 H        -0.980136        -1.611175         1.683924
