19
Iteration:  3488
 O         0.513196         0.220603         0.199702
 C        -0.750181         0.276199         0.800389
 C        -2.155010         0.110436         0.037667
 C        -2.691314         1.301223         0.996875
 C        -2.663512         1.022172         2.555525
 C        -1.609362         2.094754         2.666753
 C        -1.212625         1.832272         1.216285
 O        -2.074638        -0.243436         2.768581
 C        -0.881617        -0.506631         2.004416
 H         0.853445        -0.659271        -0.052334
 H        -2.047906         0.462525        -1.047265
 H        -2.521660        -0.945568         0.075415
 H        -3.426608         2.057620         0.706780
 H        -3.623031         0.998242         3.198313
 H        -2.030104         3.151535         2.605257
 H        -0.796064         1.947175         3.448364
 H        -0.801028         2.685560         0.570614
 H         0.051814        -0.467097         2.527503
 H        -1.007433        -1.536746         1.706226
