19
Iteration:  4057charge 0 multiplicity 1
 O         0.544815         0.167990         0.123555
 C        -0.813922         0.382163         0.763183
 C        -2.175528         0.152738         0.049454
 C        -2.714892         1.177656         0.999874
 C        -2.613716         0.999177         2.631724
 C        -1.575232         2.106726         2.613014
 C        -1.242846         1.811482         1.095781
 O        -2.108708        -0.318700         2.814376
 C        -0.816274        -0.353113         2.154017
 H         0.385808        -0.730483        -0.227260
 H        -2.238777         0.521730        -1.039980
 H        -2.509643        -0.859588        -0.000872
 H        -3.558036         1.655765         0.494392
 H        -3.477860         1.071761         3.328003
 H        -1.928940         3.173838         2.674093
 H        -0.732515         1.849205         3.322786
 H        -0.816955         2.516667         0.311819
 H        -0.099560         0.130830         2.976373
 H        -0.466770        -1.350467         2.034091
