19
Iteration:  1493charge 0 multiplicity 1
 O         0.414395         0.013002         0.112715
 C        -0.763872         0.336476         0.840791
 C        -2.124765         0.197126         0.199378
 C        -2.671460         1.405757         0.936971
 C        -2.651146         0.969658         2.491024
 C        -1.618478         1.987167         2.709208
 C        -1.184151         1.857281         1.305075
 O        -2.124186        -0.288893         2.565212
 C        -0.770594        -0.425384         2.136208
 H         0.575874         0.583394        -0.651869
 H        -1.963340         0.443701        -0.883715
 H        -2.591584        -0.845634         0.178908
 H        -3.209739         2.189175         0.467019
 H        -3.526308         0.999568         3.104868
 H        -2.158299         2.893160         2.874027
 H        -0.984727         1.879628         3.539225
 H        -0.601722         2.704205         0.777803
 H        -0.113912         0.005697         2.789469
 H        -0.554836        -1.497322         2.091715
