19
Iteration:  4136
 O         0.512588         0.296955         0.089357
 C        -0.762024         0.269479         0.793175
 C        -2.201617         0.045123         0.054307
 C        -2.711602         1.147539         1.025168
 C        -2.624759         1.109661         2.533836
 C        -1.524493         2.096170         2.605525
 C        -1.306103         1.826588         1.171925
 O        -2.084347        -0.287352         2.826792
 C        -0.840630        -0.451287         2.165248
 H         0.711159        -0.583708        -0.255095
 H        -2.250259         0.466611        -0.959036
 H        -2.436421        -1.041932        -0.058037
 H        -3.468508         1.851951         0.597542
 H        -3.483169         1.136076         3.201515
 H        -1.919594         3.117676         2.714108
 H        -0.603890         2.140192         3.233472
 H        -0.901592         2.612666         0.451382
 H        -0.098122        -0.024650         2.833936
 H        -0.643768        -1.457244         1.957303
