19
Iteration:  3859charge 0 multiplicity 1
 O         0.506734         0.273742         0.150212
 C        -0.817315         0.340334         0.807666
 C        -2.140848         0.055406         0.068959
 C        -2.713686         1.184797         0.973119
 C        -2.648404         1.008602         2.493830
 C        -1.500729         2.054307         2.611536
 C        -1.257406         1.837373         1.150252
 O        -2.141859        -0.284958         2.800396
 C        -0.816354        -0.392925         2.131586
 H         0.587364        -0.659174        -0.105842
 H        -2.101715         0.505224        -0.940523
 H        -2.562316        -0.861370         0.283158
 H        -3.552155         1.713585         0.558368
 H        -3.389337         1.223978         3.306072
 H        -1.846287         3.044089         2.943695
 H        -0.677995         1.917171         3.349585
 H        -0.929256         2.576894         0.398337
 H        -0.062869         0.071101         2.833715
 H        -0.465197        -1.515096         1.880978
