19
Iteration:   214
 O         0.414914         0.197782         0.179102
 C        -0.794037         0.370870         0.894869
 C        -2.144967         0.364962        -0.099907
 C        -2.629991         1.358863         0.946792
 C        -2.582463         0.937246         2.511878
 C        -1.504641         2.072712         2.813521
 C        -1.122273         1.846591         1.301744
 O        -2.208751        -0.421968         2.646560
 C        -0.865615        -0.613761         2.095256
 H         0.373958        -0.536354        -0.420149
 H        -1.827799         0.972930        -0.983554
 H        -2.724742        -0.487282        -0.381366
 H        -3.593433         2.045526         0.666244
 H        -3.512398         1.012247         3.094271
 H        -1.966757         3.082580         2.973789
 H        -0.851949         2.001393         3.670925
 H        -0.500945         2.515190         0.584398
 H        -0.028577        -0.481485         2.826458
 H        -0.835833        -1.701931         1.752439
