19
Iteration:  1081
 O         0.456342         0.007953         0.098649
 C        -0.785467         0.329223         0.842269
 C        -2.149534         0.228779         0.066058
 C        -2.670128         1.352040         1.023702
 C        -2.652313         0.974547         2.504334
 C        -1.557240         2.080583         2.816172
 C        -1.145142         1.874182         1.282038
 O        -2.169364        -0.346321         2.556970
 C        -0.786055        -0.484347         2.066331
 H         0.856535         0.850763        -0.212592
 H        -2.015458         0.639556        -1.031654
 H        -2.743518        -0.684181         0.196458
 H        -3.519290         1.902295         0.683950
 H        -3.585191         1.087590         3.120793
 H        -2.259918         2.968708         2.685548
 H        -0.913592         2.137529         3.741337
 H        -0.593826         2.791136         0.711265
 H        -0.041745        -0.118117         2.777130
 H        -0.721125        -1.548824         2.180851
