19
Iteration:  1564charge 0 multiplicity 1
 O         0.512188         0.262512         0.360672
 C        -0.810177         0.289952         0.786081
 C        -2.157283         0.176169         0.020559
 C        -2.652802         1.316456         0.982086
 C        -2.563619         1.016561         2.507583
 C        -1.475175         2.019704         2.661127
 C        -1.242437         1.841648         1.117677
 O        -2.127201        -0.282438         2.790559
 C        -0.990221        -0.657444         1.999972
 H         0.612734         0.610327        -0.545362
 H        -2.055115         0.600682        -1.007321
 H        -2.821428        -0.675672        -0.115337
 H        -3.551693         1.968445         0.665035
 H        -3.509016         1.209471         3.095968
 H        -1.777290         3.146786         3.047654
 H        -0.482145         1.841270         3.287026
 H        -0.808095         2.630949         0.598298
 H        -0.006495        -0.406259         2.534482
 H        -0.956542        -1.760283         1.691300
