19
Iteration:  3931charge 0 multiplicity 1
 O         0.477578         0.144310         0.100866
 C        -0.729447         0.384078         0.801472
 C        -2.150695         0.107982         0.092564
 C        -2.693417         1.239492         0.946844
 C        -2.613414         0.981593         2.529027
 C        -1.621627         2.123050         2.647697
 C        -1.295879         1.855393         1.179209
 O        -2.069190        -0.304453         2.811216
 C        -0.796764        -0.408568         2.077500
 H         0.427745        -0.812082         0.218352
 H        -2.134689         0.550836        -0.895546
 H        -2.475907        -1.010764         0.247262
 H        -3.457407         2.039244         0.660996
 H        -3.593349         0.990421         3.010078
 H        -2.232200         3.082551         2.729790
 H        -0.795256         2.087606         3.422837
 H        -0.854873         2.620323         0.532408
 H         0.018140         0.054448         2.689993
 H        -0.515201        -1.547364         2.057660
