19
Iteration:  3587
 O         0.430446         0.170274         0.162854
 C        -0.871420         0.301959         0.834356
 C        -2.134334         0.164305         0.020761
 C        -2.661601         1.327716         0.935522
 C        -2.643482         0.999271         2.460162
 C        -1.578625         2.141885         2.594248
 C        -1.205200         1.756546         1.160838
 O        -2.067476        -0.286175         2.873362
 C        -0.788541        -0.565345         2.127094
 H         0.912626         1.004743         0.181453
 H        -1.961947         0.209643        -1.103045
 H        -2.726775        -0.744503         0.118810
 H        -3.508793         1.997266         0.724485
 H        -3.619141         0.899629         3.071107
 H        -2.075540         3.120756         2.749582
 H        -0.881309         1.960957         3.432976
 H        -0.654752         2.626931         0.678794
 H         0.133597        -0.307224         2.649654
 H        -0.724966        -1.548212         1.883715
