19
Iteration:  2263
 O         0.497033         0.130093         0.328260
 C        -0.844798         0.333639         0.824612
 C        -2.145471         0.259282         0.063315
 C        -2.722562         1.344685         0.952159
 C        -2.571518         1.010409         2.455515
 C        -1.464953         2.077459         2.669507
 C        -1.219639         1.813389         1.155986
 O        -2.074219        -0.334856         2.777950
 C        -0.948335        -0.592182         2.036831
 H         0.556445         0.680661        -0.489942
 H        -2.074220         0.762785        -0.948573
 H        -2.623655        -0.758170         0.196011
 H        -3.642341         1.922160         0.637633
 H        -3.594587         1.032262         2.831525
 H        -1.977958         3.153175         2.731299
 H        -0.700701         1.695551         3.456854
 H        -0.848434         2.573223         0.434005
 H         0.081704        -0.309638         2.636348
 H        -0.827154        -1.555500         1.494100
