19
Iteration:  4788
 O         0.305719         0.068650         0.001005
 C        -0.757035         0.357047         0.855932
 C        -2.077873         0.052887         0.180308
 C        -2.644318         1.280407         0.889568
 C        -2.712745         1.048467         2.475108
 C        -1.647623         2.089564         2.682282
 C        -1.196082         1.835597         1.266604
 O        -2.026928        -0.267011         2.748624
 C        -0.745381        -0.402200         2.115067
 H         1.163712         0.415449         0.272959
 H        -2.098340         0.313689        -0.921751
 H        -2.292756        -0.965001         0.438680
 H        -3.533475         1.855683         0.372068
 H        -3.756617         1.006816         3.002748
 H        -2.105540         3.106754         2.790879
 H        -1.071147         1.889720         3.634063
 H        -0.832474         2.699176         0.688410
 H         0.018441        -0.034584         2.772766
 H        -0.479786        -1.372600         1.931002
