19
Iteration:   264charge 0 multiplicity 1
 O         0.445287         0.145070         0.128928
 C        -0.745357         0.380413         0.800413
 C        -2.106294         0.251028         0.038806
 C        -2.588404         1.386699         0.913788
 C        -2.701976         0.998751         2.416575
 C        -1.498790         1.929827         2.823680
 C        -1.108132         1.883204         1.385313
 O        -2.231528        -0.375723         2.678306
 C        -0.909527        -0.487688         2.059755
 H         0.401985         0.350630        -0.821011
 H        -2.267362         0.435464        -1.041599
 H        -2.625484        -0.799439         0.257179
 H        -3.403837         1.953139         0.719982
 H        -3.772634         0.993959         2.763038
 H        -1.633393         2.899381         3.298201
 H        -0.693565         1.511526         3.520435
 H        -0.497171         2.682178         1.080752
 H        -0.128467        -0.022893         2.736436
 H        -0.796424        -1.535091         1.870255
