19
Iteration:  4382
 O         0.374808         0.101260         0.101081
 C        -0.832700         0.326419         0.869437
 C        -2.117984         0.110341         0.099708
 C        -2.765774         1.304844         0.904847
 C        -2.674868         0.991000         2.438090
 C        -1.540131         2.104922         2.617247
 C        -1.317591         1.976148         1.165723
 O        -1.974089        -0.415841         2.777155
 C        -0.690749        -0.331754         2.243661
 H         0.618575        -0.787895         0.361633
 H        -1.902862         0.436480        -0.957286
 H        -2.477311        -0.909001         0.188114
 H        -3.741010         1.717468         0.682259
 H        -3.649318         1.087830         2.921114
 H        -1.762723         3.176320         2.505111
 H        -0.768712         1.956206         3.332628
 H        -0.978584         2.679533         0.480351
 H         0.096596         0.253927         2.708606
 H        -0.466474        -1.474296         2.221131
