19
Iteration:   233
 O         0.421604         0.136261         0.083627
 C        -0.727544         0.305370         0.890862
 C        -2.055634         0.317983         0.149364
 C        -2.610118         1.479636         1.006947
 C        -2.687755         0.970592         2.469961
 C        -1.567725         2.062371         2.790820
 C        -1.139677         1.863561         1.318329
 O        -2.195428        -0.427638         2.512380
 C        -0.867265        -0.583439         2.076425
 H         0.167024        -0.340651        -0.721849
 H        -1.916452         0.788793        -0.771721
 H        -2.615093        -0.705962         0.160085
 H        -3.354950         2.200346         0.777521
 H        -3.717555         0.919048         2.959684
 H        -2.058913         2.998906         2.867199
 H        -0.803397         1.915115         3.565625
 H        -0.607590         2.699953         0.894352
 H        -0.108368        -0.330139         2.881761
 H        -0.631056        -1.592525         1.973552
