19
Iteration:  1510
 O         0.425162        -0.020286         0.174342
 C        -0.733141         0.429595         0.846083
 C        -2.128442         0.214557         0.033886
 C        -2.623426         1.365291         0.969053
 C        -2.695220         0.969102         2.464642
 C        -1.569160         2.110035         2.757331
 C        -1.211826         1.900360         1.222950
 O        -2.123204        -0.381575         2.716173
 C        -0.824395        -0.481979         2.074779
 H         0.632669         0.618665        -0.510329
 H        -2.084336         0.461919        -1.021669
 H        -2.518383        -0.775999         0.223724
 H        -3.613168         1.823764         0.621746
 H        -3.704058         0.976620         2.942011
 H        -1.869851         3.222161         2.974936
 H        -0.814974         1.963697         3.644545
 H        -0.801036         2.697433         0.643635
 H         0.161896        -0.285931         2.759891
 H        -0.690243        -1.478733         1.612660
