19
Iteration:   298charge 0 multiplicity 1
 O         0.460726         0.129577         0.301282
 C        -0.770721         0.403389         0.828798
 C        -2.142524         0.376952        -0.061086
 C        -2.684645         1.379684         0.987153
 C        -2.560694         0.929494         2.593602
 C        -1.463064         2.087795         2.651959
 C        -1.182471         1.820293         1.285935
 O        -2.191594        -0.438274         2.678664
 C        -0.976085        -0.646731         1.989653
 H         0.849234         0.991580        -0.016827
 H        -1.943352         0.849424        -1.036938
 H        -2.705592        -0.665021        -0.265876
 H        -3.439776         2.011469         0.747085
 H        -3.482624         1.101807         3.241172
 H        -2.009287         3.020226         2.543683
 H        -0.580488         2.135415         3.376615
 H        -0.573774         2.445923         0.679929
 H        -0.066717        -0.624937         2.701615
 H        -0.892432        -1.661192         1.605878
