19
Iteration:  4388charge 0 multiplicity 1
 O         0.383219         0.118202         0.127820
 C        -0.784885         0.361349         0.827431
 C        -2.177415         0.108796         0.082621
 C        -2.723775         1.290301         0.900998
 C        -2.689780         0.951421         2.473802
 C        -1.544060         2.114181         2.621311
 C        -1.325886         1.937268         1.109301
 O        -2.014971        -0.360411         2.819323
 C        -0.659463        -0.386760         2.232612
 H         0.563596        -0.824846         0.301298
 H        -2.053057         0.418826        -0.939622
 H        -2.468206        -0.997924         0.090105
 H        -3.655618         1.822332         0.585652
 H        -3.642718         1.098758         3.005468
 H        -1.970833         3.159168         2.709796
 H        -0.725134         1.836298         3.375337
 H        -0.711331         2.764975         0.533490
 H         0.057350         0.344377         2.712342
 H        -0.321975        -1.378657         2.056073
