19
Iteration:   396charge 0 multiplicity 1
 O         0.386934         0.099424         0.020932
 C        -0.735164         0.370821         0.862973
 C        -2.078925         0.274573         0.204316
 C        -2.549938         1.457430         0.978664
 C        -2.697184         0.993250         2.502034
 C        -1.586467         2.023065         2.768971
 C        -1.110286         1.808815         1.286322
 O        -2.263266        -0.421590         2.565263
 C        -0.838498        -0.532234         2.059312
 H         1.125558         0.660652         0.310545
 H        -1.981782         0.640443        -0.803349
 H        -2.753062        -0.636854         0.283529
 H        -3.299291         2.024972         0.546691
 H        -3.667001         1.093166         3.112267
 H        -2.092128         3.003442         2.791942
 H        -0.969969         1.674359         3.703841
 H        -0.523589         2.527384         0.796810
 H        -0.031904        -0.191338         2.719248
 H        -0.532136        -1.512099         1.758478
