19
Iteration:  4314
 O         0.351426         0.213603         0.138894
 C        -0.821370         0.322190         0.850967
 C        -2.101960         0.017797         0.056756
 C        -2.725892         1.253975         0.956064
 C        -2.649700         1.048459         2.454050
 C        -1.500208         2.109480         2.555681
 C        -1.273563         1.851919         1.107617
 O        -1.984888        -0.224191         2.868557
 C        -0.804028        -0.589235         2.192718
 H         0.846262         1.031763         0.407507
 H        -1.840422         0.271812        -0.959298
 H        -2.680000        -0.966309         0.240534
 H        -3.605734         1.785590         0.628194
 H        -3.578476         1.020682         3.065546
 H        -2.052845         3.070048         2.678734
 H        -0.647324         1.924987         3.273211
 H        -0.930905         2.817133         0.645762
 H         0.104624        -0.486102         2.728024
 H        -0.856048        -1.589627         1.648895
