19
Iteration:  1495charge 0 multiplicity 1
 O         0.410748         0.003529         0.123766
 C        -0.769112         0.355373         0.829694
 C        -2.107491         0.199875         0.194437
 C        -2.680616         1.385457         0.928961
 C        -2.657080         0.976202         2.485762
 C        -1.613539         1.995565         2.725908
 C        -1.186550         1.867546         1.299425
 O        -2.123230        -0.295268         2.581909
 C        -0.760679        -0.429322         2.111566
 H         0.619744         0.586796        -0.654462
 H        -1.980127         0.438993        -0.892573
 H        -2.645175        -0.792546         0.192565
 H        -3.196820         2.206256         0.537944
 H        -3.585269         0.976793         3.094870
 H        -2.193869         2.986948         2.777968
 H        -0.864927         1.842985         3.528648
 H        -0.652158         2.703388         0.808382
 H        -0.119099        -0.033212         2.902488
 H        -0.580181        -1.578738         2.062402
