19
Iteration:  4152
 O         0.478270         0.220183         0.251147
 C        -0.840822         0.416228         0.791993
 C        -2.110591         0.082454         0.102303
 C        -2.777283         1.225846         0.967905
 C        -2.583790         0.916405         2.599396
 C        -1.436793         2.182750         2.575019
 C        -1.333840         1.834744         1.026315
 O        -2.090306        -0.318312         2.812915
 C        -0.794288        -0.427990         2.087742
 H         0.414071        -0.579326        -0.277010
 H        -2.072798         0.378190        -0.977593
 H        -2.636198        -0.856745         0.128005
 H        -3.743439         1.636152         0.729691
 H        -3.483004         1.102179         3.205619
 H        -1.918686         3.146738         2.775644
 H        -0.663294         1.983205         3.294875
 H        -0.965527         2.540088         0.313242
 H         0.182596        -0.062906         2.637438
 H        -0.686515        -1.590120         1.904795
