19
Iteration:   555charge 0 multiplicity 1
 O         0.476698         0.026819         0.215141
 C        -0.785066         0.401903         0.816888
 C        -2.141511         0.300530         0.085124
 C        -2.582316         1.430459         0.956501
 C        -2.685835         0.980082         2.513206
 C        -1.617999         2.014909         2.749714
 C        -1.123093         1.956946         1.182265
 O        -2.138145        -0.409240         2.742621
 C        -0.876109        -0.576234         2.006654
 H         0.430104         0.380875        -0.691642
 H        -2.007979         0.661041        -1.067686
 H        -2.670601        -0.665204        -0.040874
 H        -3.460747         2.088383         0.645712
 H        -3.590007         0.862442         3.038370
 H        -2.157533         3.011321         2.994872
 H        -0.844870         1.861447         3.531598
 H        -0.503902         2.879677         0.848593
 H         0.006800        -0.594085         2.666672
 H        -0.769998        -1.590357         1.593654
