19
Iteration:   716
 O         0.518021         0.244098         0.249723
 C        -0.774855         0.380372         0.831565
 C        -2.145554         0.279662         0.018120
 C        -2.659840         1.383653         0.966394
 C        -2.600333         1.044921         2.491891
 C        -1.484190         1.959776         2.756073
 C        -1.172920         1.840496         1.246382
 O        -2.220177        -0.347919         2.683533
 C        -0.924493        -0.638578         2.007269
 H         0.580709        -0.369305        -0.482363
 H        -2.128200         0.598750        -1.014631
 H        -2.705736        -0.693025        -0.136947
 H        -3.450956         2.019549         0.712291
 H        -3.579223         1.162800         3.091442
 H        -1.759976         2.984448         3.192205
 H        -0.749899         1.655320         3.609664
 H        -0.735882         2.591316         0.537378
 H         0.024389        -0.735197         2.680003
 H        -1.010524        -1.663592         1.631735
