19
Iteration:  2466charge 0 multiplicity 1
 O         0.359374        -0.025088         0.072489
 C        -0.778541         0.394761         0.865471
 C        -2.159011         0.257255         0.069219
 C        -2.636828         1.387680         0.884988
 C        -2.680710         0.956330         2.509818
 C        -1.586066         2.076276         2.710431
 C        -1.115171         1.866301         1.298421
 O        -2.099657        -0.409803         2.701044
 C        -0.804984        -0.451085         2.160134
 H         0.893594         0.721438        -0.249875
 H        -1.871603         0.606633        -0.901803
 H        -2.593966        -0.718128         0.077781
 H        -3.363032         2.074684         0.390987
 H        -3.675060         1.199275         3.071831
 H        -2.079939         3.041170         2.774395
 H        -0.975008         1.826875         3.613926
 H        -0.684686         2.745115         0.777980
 H         0.007099         0.010129         2.781952
 H        -0.577898        -1.527615         1.864685
