19
Iteration:  4580charge 0 multiplicity 1
 O         0.475972         0.230732         0.274154
 C        -0.830281         0.370155         0.818407
 C        -2.209922         0.047781         0.099389
 C        -2.699589         1.209174         0.912786
 C        -2.522118         1.018380         2.511591
 C        -1.502306         2.116724         2.560897
 C        -1.294021         1.858724         1.047779
 O        -2.072441        -0.374456         2.838768
 C        -0.873408        -0.466463         2.125874
 H         0.597483         0.920129        -0.442740
 H        -2.171086         0.388227        -1.042971
 H        -2.669860        -0.939432         0.154379
 H        -3.737310         1.655958         0.718439
 H        -3.390244         1.155380         3.258230
 H        -1.700936         3.219726         2.754130
 H        -0.614153         1.977249         3.257336
 H        -0.920847         2.660822         0.431016
 H         0.118942        -0.171195         2.723698
 H        -0.685604        -1.540532         2.028800
