19
Iteration:  4652
 O         0.366593         0.238996        -0.024025
 C        -0.755717         0.323985         0.939655
 C        -2.048845         0.092704         0.111560
 C        -2.660780         1.300884         0.847375
 C        -2.690769         0.993257         2.486711
 C        -1.662475         2.102899         2.613009
 C        -1.204517         1.787852         1.213398
 O        -2.003404        -0.276391         2.860681
 C        -0.799765        -0.465038         2.242661
 H         0.111816        -0.440082        -0.698843
 H        -2.011756         0.234516        -0.949141
 H        -2.696604        -0.870658         0.326807
 H        -3.213660         1.983000         0.283227
 H        -3.599275         0.850448         3.029790
 H        -2.101408         3.099146         2.728136
 H        -1.041298         2.052342         3.517735
 H        -0.714136         2.568284         0.624384
 H        -0.041035        -0.155971         2.875373
 H        -0.522085        -1.468792         1.988060
