19
Iteration:  4016charge 0 multiplicity 1
 O         0.417864         0.341495         0.240258
 C        -0.764196         0.362400         0.901143
 C        -2.152992         0.053355         0.097733
 C        -2.767025         1.238696         0.860460
 C        -2.631147         1.045670         2.533320
 C        -1.516446         2.138602         2.575872
 C        -1.233882         1.821397         1.024090
 O        -1.992484        -0.288773         2.878454
 C        -0.833190        -0.600798         2.060586
 H         0.545317        -0.450999        -0.334102
 H        -2.010046         0.248873        -0.950241
 H        -2.728254        -0.885156         0.206550
 H        -3.680440         1.882458         0.722233
 H        -3.509854         0.986872         3.189477
 H        -1.898023         3.115981         2.829035
 H        -0.822668         2.023611         3.397640
 H        -0.712291         2.598793         0.369608
 H         0.057321        -0.508611         2.800189
 H        -1.151910        -1.669871         1.798275
