19
Iteration:   127charge 0 multiplicity 1
 O         0.432879         0.219261         0.056621
 C        -0.786909         0.312712         0.842550
 C        -2.152426         0.318252         0.040585
 C        -2.543983         1.457484         0.986317
 C        -2.601211         0.938631         2.446127
 C        -1.517921         1.949351         2.809482
 C        -1.094059         1.936859         1.311855
 O        -2.263110        -0.463917         2.612876
 C        -0.895102        -0.559964         2.127405
 H         0.700572        -0.715687         0.095878
 H        -2.007982         0.767912        -0.967062
 H        -2.768767        -0.522257        -0.154422
 H        -3.377600         2.248615         0.808055
 H        -3.514633         1.056751         3.036116
 H        -2.015828         2.941329         3.091637
 H        -0.814531         1.763869         3.644617
 H        -0.680945         2.814313         0.727739
 H        -0.243348        -0.126462         2.807982
 H        -0.791824        -1.669420         1.978181
