19
Iteration:   985
 O         0.468368         0.274347         0.143825
 C        -0.844535         0.411711         0.856591
 C        -2.174769         0.185414         0.128480
 C        -2.608925         1.393750         0.948951
 C        -2.621328         0.964617         2.523101
 C        -1.384636         1.966108         2.697891
 C        -1.115618         1.932073         1.161096
 O        -2.276341        -0.453877         2.658565
 C        -0.929264        -0.537545         2.028255
 H         1.178570         0.015433         0.796702
 H        -2.107873         0.414868        -0.990213
 H        -2.698158        -0.725505         0.375864
 H        -3.645892         1.869293         0.703308
 H        -3.560591         1.173517         3.141598
 H        -1.792730         2.998157         3.018782
 H        -0.558470         1.511874         3.309536
 H        -0.610545         2.646778         0.558687
 H        -0.315126        -0.342359         3.014171
 H        -0.715147        -1.593618         1.651827
