19
Iteration:   385
 O         0.410947         0.123413        -0.019255
 C        -0.763946         0.298374         0.814850
 C        -2.127774         0.298499         0.100830
 C        -2.602846         1.465666         0.980394
 C        -2.664192         0.936684         2.468361
 C        -1.555530         2.031444         2.809798
 C        -1.008685         1.866975         1.333973
 O        -2.274595        -0.472186         2.572360
 C        -0.861580        -0.512351         2.150798
 H         1.080411         0.838938         0.162768
 H        -2.073091         0.337910        -0.962762
 H        -2.606834        -0.739497         0.319146
 H        -3.351994         2.114249         0.664170
 H        -3.646131         1.032007         3.069080
 H        -2.099943         2.998014         2.771458
 H        -0.860206         2.295953         3.757199
 H        -0.424533         2.608288         0.868920
 H        -0.367106        -0.082398         3.038950
 H        -0.719132        -1.572704         2.099054
