19
Iteration:  2288charge 0 multiplicity 1
 O         0.436989         0.140320         0.104584
 C        -0.789606         0.326112         0.852161
 C        -2.093916         0.135760         0.090008
 C        -2.586144         1.324869         0.916319
 C        -2.628893         1.042947         2.555964
 C        -1.527013         2.061364         2.683457
 C        -1.190757         1.854913         1.269566
 O        -2.220765        -0.319207         2.686176
 C        -0.865584        -0.547393         2.119460
 H         0.545513         0.956928        -0.446413
 H        -2.038176         0.287384        -0.963466
 H        -2.633248        -0.764728         0.390143
 H        -3.267243         2.099096         0.490843
 H        -3.617797         1.150301         3.055669
 H        -1.923635         3.097835         2.903297
 H        -0.667978         1.734143         3.366424
 H        -0.800327         2.713137         0.703028
 H         0.000562        -0.352739         2.872258
 H        -0.773899        -1.562328         1.694203
