19
Iteration:  4848charge 0 multiplicity 1
 O         0.488065         0.197752         0.185225
 C        -0.830268         0.334973         0.798005
 C        -2.158080         0.006142         0.047814
 C        -2.714947         1.229852         0.964410
 C        -2.569891         1.053664         2.569071
 C        -1.521625         2.128639         2.633769
 C        -1.302513         1.840670         1.167893
 O        -2.055484        -0.222440         2.805705
 C        -0.867969        -0.523910         2.041559
 H         1.240711         0.665864         0.570195
 H        -2.162540         0.176852        -0.989006
 H        -2.657663        -1.016366         0.085130
 H        -3.505851         1.795078         0.627968
 H        -3.402672         1.037848         3.165500
 H        -2.075568         3.062844         2.668635
 H        -0.714547         2.061217         3.364686
 H        -0.969886         2.550803         0.395370
 H        -0.007857        -0.392984         2.729929
 H        -0.977896        -1.498048         1.420998
