19
Iteration:   327
 O         0.523268         0.086081         0.267939
 C        -0.742948         0.400284         0.769793
 C        -2.183406         0.284243        -0.039825
 C        -2.598388         1.320591         0.990566
 C        -2.600623         0.983879         2.538421
 C        -1.517050         2.007069         2.796246
 C        -1.226905         1.912206         1.226010
 O        -2.165352        -0.339011         2.728809
 C        -0.973718        -0.589088         1.937083
 H         1.057921         0.886138         0.297508
 H        -2.131892         0.719485        -1.066193
 H        -2.675275        -0.615957         0.031828
 H        -3.454859         2.046101         0.657170
 H        -3.547696         1.127729         3.056403
 H        -1.893661         3.019020         3.072734
 H        -0.675419         1.651011         3.424596
 H        -0.865394         2.683885         0.482686
 H        -0.164700        -0.827141         2.598527
 H        -1.154404        -1.593155         1.442175
