19
Iteration:   390charge 0 multiplicity 1
 O         0.407240         0.117036        -0.000599
 C        -0.774324         0.317870         0.823163
 C        -2.089887         0.304971         0.186092
 C        -2.561809         1.463581         0.988192
 C        -2.701669         0.961105         2.488230
 C        -1.570661         2.036779         2.804231
 C        -1.056459         1.826517         1.300793
 O        -2.280795        -0.457808         2.567340
 C        -0.846256        -0.513458         2.098218
 H         1.125681         0.717872         0.179211
 H        -2.047030         0.426099        -0.941743
 H        -2.637734        -0.651159         0.292389
 H        -3.449529         2.067203         0.520160
 H        -3.541453         1.100322         3.088559
 H        -2.121289         2.991578         2.743742
 H        -0.974019         2.015115         3.675974
 H        -0.369276         2.614195         0.804812
 H        -0.160558        -0.126033         2.926384
 H        -0.539311        -1.595306         1.925576
