19
Iteration:  2295
 O         0.427130         0.141187         0.056039
 C        -0.729044         0.301258         0.845744
 C        -2.082288         0.164401         0.124077
 C        -2.573774         1.381838         0.931726
 C        -2.634053         1.051523         2.505340
 C        -1.498230         2.072377         2.746297
 C        -1.196291         1.801982         1.247553
 O        -2.234233        -0.362779         2.697523
 C        -0.920324        -0.504696         2.128075
 H         0.560902         0.951130        -0.468892
 H        -2.183885         0.111222        -1.003201
 H        -2.527769        -0.840488         0.326946
 H        -3.354379         1.984446         0.444376
 H        -3.622258         0.953046         2.914615
 H        -1.863913         3.144467         2.965577
 H        -0.835153         1.902684         3.615983
 H        -0.840472         2.638062         0.620249
 H        -0.087372        -0.092788         2.812395
 H        -0.622554        -1.550304         1.929401
