19
Iteration:  1690charge 0 multiplicity 1
 O         0.533131         0.236970         0.347018
 C        -0.800825         0.434705         0.774076
 C        -2.197913         0.190105         0.025978
 C        -2.665197         1.270444         0.998856
 C        -2.524182         0.969512         2.556585
 C        -1.376629         2.023831         2.634722
 C        -1.242628         1.823261         1.125071
 O        -2.205020        -0.331463         2.710733
 C        -1.007863        -0.598633         2.065494
 H         0.745601         0.659061        -0.525448
 H        -2.250151         0.646863        -0.978148
 H        -2.480080        -0.909192         0.049248
 H        -3.524197         1.938179         0.937792
 H        -3.405335         1.302836         3.172726
 H        -1.979230         2.993003         2.664479
 H        -0.564687         1.881954         3.354269
 H        -0.893389         2.580244         0.285916
 H        -0.149119        -0.445779         2.861923
 H        -0.862986        -1.610715         1.653354
