19
Iteration:  4239
 O         0.364231         0.156203         0.068483
 C        -0.754407         0.419793         0.919902
 C        -2.148572         0.033637         0.159252
 C        -2.652996         1.297459         0.860395
 C        -2.597111         0.993113         2.440267
 C        -1.618645         2.120000         2.594741
 C        -1.257452         1.926584         1.183353
 O        -2.035696        -0.331996         2.801850
 C        -0.774299        -0.479478         2.226925
 H        -0.012619        -0.022341        -0.796678
 H        -2.014372         0.137281        -0.895501
 H        -2.539736        -0.946702         0.456999
 H        -3.379289         2.064469         0.617199
 H        -3.423429         0.764175         3.106090
 H        -2.018495         3.103956         2.754652
 H        -0.937863         1.883433         3.337431
 H        -0.921231         2.683604         0.553552
 H         0.171176        -0.126611         2.815060
 H        -0.434515        -1.572308         2.070714
