19
Iteration:  1026
 O         0.502106         0.234197         0.238771
 C        -0.836534         0.337146         0.821764
 C        -2.140665         0.258107        -0.035025
 C        -2.650602         1.332630         0.966047
 C        -2.646204         0.995256         2.517589
 C        -1.500726         2.060203         2.728538
 C        -1.181087         1.836490         1.234526
 O        -2.117978        -0.382918         2.783975
 C        -0.917816        -0.569216         2.011669
 H         0.384181        -0.388578        -0.484690
 H        -2.020817         0.543084        -1.180845
 H        -2.778256        -0.617420        -0.235134
 H        -3.380756         2.056393         0.667301
 H        -3.576305         1.078157         3.116432
 H        -1.885622         3.144577         2.981104
 H        -0.714428         1.693806         3.473271
 H        -0.548582         2.674985         0.651995
 H         0.013766        -0.298045         2.506063
 H        -1.050044        -1.626911         1.769743
