19
Iteration:  2889
 O         0.378717         0.057410         0.205778
 C        -0.774794         0.419586         0.852248
 C        -2.150693         0.247487         0.055698
 C        -2.594643         1.369086         0.960809
 C        -2.621549         0.921904         2.466924
 C        -1.478403         1.999491         2.742218
 C        -1.179819         1.917958         1.212589
 O        -2.166438        -0.438184         2.607207
 C        -0.827640        -0.388976         2.144625
 H         0.203280         0.286638        -0.712277
 H        -1.888096         0.486447        -0.947001
 H        -2.679452        -0.640449         0.308100
 H        -3.439518         2.062455         0.708429
 H        -3.545514         1.029050         3.049495
 H        -1.978684         2.989516         2.924116
 H        -0.854350         1.658115         3.611045
 H        -0.769455         2.872835         0.819996
 H        -0.128160        -0.188978         2.911720
 H        -0.681585        -1.423353         1.657132
