19
Iteration:   216
 O         0.416191         0.189651         0.168957
 C        -0.794799         0.368423         0.894712
 C        -2.150075         0.374576        -0.072512
 C        -2.630535         1.348000         0.960736
 C        -2.591169         0.932910         2.499870
 C        -1.511031         2.089609         2.799110
 C        -1.122651         1.853621         1.328192
 O        -2.215749        -0.418138         2.620283
 C        -0.836999        -0.622376         2.112951
 H         0.329495        -0.545905        -0.474203
 H        -1.811136         0.957751        -1.064840
 H        -2.720823        -0.436511        -0.348472
 H        -3.593449         1.978904         0.635029
 H        -3.478998         1.010944         3.060687
 H        -1.940558         3.151230         2.998686
 H        -0.845501         2.002172         3.689782
 H        -0.483202         2.463542         0.600250
 H        -0.056245        -0.439899         2.845586
 H        -0.857399        -1.737886         1.717161
