19
Iteration:  3368charge 0 multiplicity 1
 O         0.452262         0.268384         0.189750
 C        -0.731267         0.364312         0.833343
 C        -2.069801         0.203250         0.056657
 C        -2.640579         1.332146         0.929821
 C        -2.623822         1.003521         2.519766
 C        -1.558577         2.125122         2.666152
 C        -1.198376         1.796435         1.187262
 O        -2.125244        -0.347110         2.773089
 C        -0.933213        -0.635918         2.097287
 H         0.207278        -0.343653        -0.533042
 H        -2.025744         0.649551        -0.939841
 H        -2.418708        -0.760525         0.017715
 H        -3.445958         1.949434         0.587219
 H        -3.491127         1.204310         3.154737
 H        -2.137542         3.033514         2.793040
 H        -0.922928         1.828895         3.480696
 H        -0.791386         2.628136         0.573649
 H         0.017617        -0.552365         2.753779
 H        -1.047924        -1.752506         1.789823
