19
Iteration:  2721
 O         0.410316         0.075355         0.053330
 C        -0.709325         0.320158         0.841433
 C        -2.083028         0.267664         0.032197
 C        -2.554578         1.334849         0.983233
 C        -2.761084         0.966061         2.515548
 C        -1.637267         2.056163         2.763105
 C        -1.148518         1.809606         1.308223
 O        -2.105408        -0.275941         2.767164
 C        -0.827385        -0.526200         2.033865
 H         0.174778         0.252830        -0.868207
 H        -1.781751         0.614975        -0.964635
 H        -2.772036        -0.571183         0.097844
 H        -3.299599         2.098376         0.750722
 H        -3.732271         1.043587         2.982307
 H        -2.218802         3.053392         2.524470
 H        -1.239148         2.046900         3.824282
 H        -0.532836         2.574092         0.747443
 H        -0.106909        -0.094301         2.714995
 H        -0.607417        -1.669443         1.895964
