19
Iteration:  1097charge 0 multiplicity 1
 O         0.449828         0.101733         0.178077
 C        -0.766810         0.406741         0.801393
 C        -2.191319         0.230497         0.124450
 C        -2.594799         1.431223         0.982994
 C        -2.644904         0.944608         2.514099
 C        -1.520688         1.995317         2.670095
 C        -1.160807         1.798610         1.212553
 O        -2.186008        -0.417265         2.632560
 C        -0.877381        -0.445170         2.124439
 H         0.882958         0.901923        -0.138297
 H        -2.233718         0.411201        -0.875786
 H        -2.665887        -0.757981         0.227310
 H        -3.293279         2.300684         0.681611
 H        -3.566002         0.927652         3.062575
 H        -1.921380         2.981018         2.803373
 H        -0.730981         1.759319         3.410408
 H        -0.773384         2.522912         0.666874
 H        -0.194589        -0.071955         2.896722
 H        -0.544246        -1.392048         1.693850
