19
Iteration:     2charge 0 multiplicity 1
 O         0.389206         0.169043         0.091197
 C        -0.781944         0.380475         0.833793
 C        -2.109831         0.297305         0.025096
 C        -2.608472         1.397030         0.974325
 C        -2.634897         0.957117         2.507047
 C        -1.505482         1.976924         2.786306
 C        -1.162116         1.857623         1.286719
 O        -2.187674        -0.386826         2.654524
 C        -0.889061        -0.559729         2.032721
 H         1.138336         0.281808         0.694059
 H        -2.012156         0.681363        -0.944719
 H        -2.613846        -0.681943        -0.002352
 H        -3.434178         2.089111         0.658723
 H        -3.583952         1.040163         3.072916
 H        -1.903174         2.947368         3.040151
 H        -0.784074         1.706487         3.559657
 H        -0.648936         2.644038         0.751315
 H        -0.124614        -0.428824         2.736510
 H        -0.858574        -1.592127         1.702366
