19
Iteration:  1850
 O         0.467188         0.253017         0.309465
 C        -0.819888         0.336473         0.883375
 C        -2.157610         0.165524         0.033584
 C        -2.645973         1.336204         0.926595
 C        -2.577177         1.001205         2.577313
 C        -1.410457         2.125227         2.655213
 C        -1.241660         1.834327         1.177687
 O        -2.124963        -0.350346         2.687550
 C        -0.953080        -0.615940         2.014510
 H         0.259539         0.089452        -0.612648
 H        -2.083109         0.637651        -0.984629
 H        -2.607965        -0.837450        -0.109480
 H        -3.428855         2.120329         0.634082
 H        -3.535283         0.992170         3.148057
 H        -1.901049         3.037167         2.964652
 H        -0.513687         1.948951         3.302205
 H        -0.743869         2.666741         0.685068
 H        -0.014375        -0.713395         2.719189
 H        -1.130879        -1.691843         1.651073
