19
Iteration:   180
 O         0.564318         0.295827         0.254719
 C        -0.747994         0.419344         0.800739
 C        -2.226976         0.314063        -0.055093
 C        -2.692620         1.331030         0.933990
 C        -2.676581         0.990054         2.495588
 C        -1.400185         1.903950         2.810521
 C        -1.141058         1.840082         1.219843
 O        -2.177306        -0.330181         2.784831
 C        -0.975160        -0.602575         1.926445
 H         0.789239        -0.644313         0.395033
 H        -2.305610         0.718061        -1.016480
 H        -2.754311        -0.692613        -0.119265
 H        -3.637820         2.004567         0.717082
 H        -3.664531         1.090821         3.051714
 H        -1.542449         2.902953         3.171880
 H        -0.717029         1.330958         3.404865
 H        -0.602005         2.671491         0.686187
 H        -0.096037        -0.711193         2.624463
 H        -1.227738        -1.574644         1.430421
