19
Iteration:   569charge 0 multiplicity 1
 O         0.481405         0.019382         0.285965
 C        -0.749389         0.443333         0.797150
 C        -2.128092         0.299831        -0.031608
 C        -2.648886         1.410690         0.940058
 C        -2.629251         0.915560         2.470001
 C        -1.508295         2.028821         2.789851
 C        -1.249226         1.908898         1.250574
 O        -2.095177        -0.353383         2.757496
 C        -0.946138        -0.575485         1.980857
 H         0.863822         0.628997        -0.394666
 H        -2.202577         0.513579        -1.136104
 H        -2.619572        -0.666981         0.227771
 H        -3.445821         2.211400         0.657338
 H        -3.632367         1.122931         2.976855
 H        -1.761985         2.991982         3.114398
 H        -0.820438         1.693188         3.514062
 H        -0.964313         2.624884         0.502911
 H        -0.032953        -0.526368         2.606146
 H        -1.145103        -1.549736         1.442355
