19
Iteration:  3301
 O         0.398475         0.037560         0.117110
 C        -0.763242         0.405755         0.871345
 C        -2.081327         0.211452         0.154859
 C        -2.641243         1.361736         0.967367
 C        -2.580982         0.971765         2.484458
 C        -1.565979         2.127723         2.738901
 C        -1.220770         2.020705         1.186804
 O        -2.188148        -0.450391         2.617268
 C        -0.847931        -0.568350         2.092642
 H         1.172927         0.399350         0.587105
 H        -2.211987         0.479932        -0.867222
 H        -2.596754        -0.635759         0.166529
 H        -3.464489         1.905529         0.508588
 H        -3.417380         1.105809         3.115123
 H        -2.095998         3.052224         2.971469
 H        -0.750774         1.819764         3.319388
 H        -0.738320         2.737035         0.503948
 H        -0.206427        -0.222124         2.941897
 H        -0.540374        -1.527931         1.601615
