19
Iteration:    61
 O         0.469736         0.200215         0.231133
 C        -0.794416         0.338243         0.874102
 C        -2.134588         0.301360        -0.031532
 C        -2.656370         1.433360         0.937246
 C        -2.583572         0.962001         2.568136
 C        -1.416967         2.142556         2.791209
 C        -1.191707         1.868810         1.309732
 O        -2.237160        -0.478809         2.630308
 C        -0.911027        -0.722167         1.995909
 H         0.346805         0.539039        -0.679056
 H        -1.772021         0.712893        -1.018889
 H        -2.667659        -0.602882        -0.275350
 H        -3.432684         2.231650         0.634039
 H        -3.492520         1.067426         3.190318
 H        -1.993921         3.112354         2.895751
 H        -0.632339         1.962068         3.553421
 H        -0.646309         2.645009         0.710228
 H        -0.244135        -0.450693         2.786345
 H        -0.820761        -1.771679         1.649292
