19
Iteration:  3982
 O         0.443035         0.269287         0.057102
 C        -0.713191         0.305065         0.787089
 C        -2.165968         0.029782         0.100118
 C        -2.692291         1.227380         1.005514
 C        -2.651779         1.024397         2.551457
 C        -1.562757         2.174013         2.656687
 C        -1.185016         1.830416         1.145305
 O        -2.108934        -0.324661         2.769053
 C        -0.831597        -0.403419         2.129842
 H         0.712773        -0.657026         0.245469
 H        -2.120668         0.241720        -0.986971
 H        -2.680630        -0.890258         0.273414
 H        -3.542075         1.807518         0.595113
 H        -3.579207         1.027344         3.141588
 H        -2.146553         3.049430         2.592672
 H        -0.940132         2.039466         3.522327
 H        -0.719153         2.597031         0.432459
 H         0.008268        -0.158392         2.847234
 H        -0.601871        -1.528002         2.162617
