19
Iteration:  2080
 O         0.453095         0.185255         0.222731
 C        -0.806169         0.383656         0.859714
 C        -2.148247         0.216017         0.098183
 C        -2.627074         1.318067         0.938865
 C        -2.610993         1.016996         2.517498
 C        -1.495711         2.072738         2.689771
 C        -1.238405         1.775418         1.213924
 O        -2.177895        -0.320491         2.710747
 C        -0.804012        -0.592653         2.050320
 H         0.244998         0.524094        -0.658129
 H        -2.030910         0.551439        -0.949599
 H        -2.468494        -0.866385         0.072789
 H        -3.382217         2.109031         0.545411
 H        -3.618487         1.259630         3.016687
 H        -1.864437         3.063050         2.706662
 H        -0.775838         1.812072         3.471614
 H        -0.585829         2.406336         0.497590
 H         0.095924        -0.471687         2.770412
 H        -1.146814        -1.622131         1.741119
