19
Iteration:  2011
 O         0.413414         0.032429         0.220177
 C        -0.800177         0.354901         0.799949
 C        -2.116804         0.260147        -0.002719
 C        -2.631074         1.372667         0.974295
 C        -2.631908         1.003727         2.503994
 C        -1.563096         2.143284         2.768171
 C        -1.223729         1.851272         1.210288
 O        -2.119861        -0.387431         2.718533
 C        -0.798747        -0.537042         2.081138
 H         0.708363         0.519957        -0.548397
 H        -2.101229         0.653420        -1.024987
 H        -2.667108        -0.659856        -0.043165
 H        -3.459663         1.984089         0.679569
 H        -3.502712         1.018599         3.102134
 H        -2.219547         2.980343         3.054292
 H        -0.787588         1.874948         3.534619
 H        -0.773025         2.513327         0.433755
 H         0.098202        -0.217687         2.707840
 H        -0.702954        -1.496146         1.630958
