19
Iteration:  3009charge 0 multiplicity 1
 O         0.427088         0.165135         0.079274
 C        -0.741145         0.337281         0.821544
 C        -2.158167         0.155852         0.042999
 C        -2.599303         1.383958         0.892558
 C        -2.714550         0.934145         2.485138
 C        -1.532266         2.002237         2.808633
 C        -1.131921         1.836714         1.302448
 O        -2.216856        -0.342829         2.664739
 C        -0.774602        -0.417365         2.186387
 H         0.151923         0.211634        -0.868132
 H        -1.976727         0.505110        -0.936143
 H        -2.675089        -0.762802         0.144659
 H        -3.076039         2.303160         0.531545
 H        -3.674228         0.993840         2.995208
 H        -1.999808         3.010049         2.948724
 H        -0.841489         1.792566         3.679465
 H        -0.618453         2.537056         0.591642
 H         0.011791        -0.119539         3.007902
 H        -0.739992        -1.539095         2.084324
