19
Iteration:  2372
 O         0.537372         0.141090         0.259122
 C        -0.805204         0.404871         0.771170
 C        -2.044077         0.261916         0.006368
 C        -2.709993         1.312260         1.003263
 C        -2.648741         1.000814         2.588483
 C        -1.485704         2.055502         2.691676
 C        -1.216791         1.794683         1.161609
 O        -2.118444        -0.275346         2.837833
 C        -0.999444        -0.624001         1.976163
 H         0.575588         0.101039        -0.699021
 H        -1.978841         0.796151        -1.006201
 H        -2.444576        -0.771421         0.116024
 H        -3.362325         2.070425         0.557257
 H        -3.544326         0.960885         3.176571
 H        -2.016996         3.053574         2.684713
 H        -0.681522         1.893533         3.399522
 H        -0.928942         2.547567         0.416822
 H        -0.086958        -0.529743         2.554607
 H        -1.207590        -1.560444         1.439592
