19
Iteration:  1160
 O         0.578649         0.126834         0.240141
 C        -0.810287         0.403577         0.775008
 C        -2.161250         0.304678        -0.016090
 C        -2.646059         1.337969         1.000240
 C        -2.566370         0.928789         2.529727
 C        -1.567787         2.107311         2.665832
 C        -1.179934         1.828678         1.251586
 O        -2.140848        -0.368282         2.832380
 C        -0.975064        -0.612386         1.973257
 H         0.609299         0.181826        -0.744423
 H        -2.068057         0.796398        -1.035477
 H        -2.726847        -0.627860        -0.000278
 H        -3.567373         1.859040         0.724495
 H        -3.496324         1.085712         3.094353
 H        -2.103415         3.081031         2.761641
 H        -0.808511         2.215786         3.482421
 H        -0.599035         2.699824         0.690971
 H        -0.147873        -0.533451         2.675820
 H        -1.106085        -1.598346         1.606708
