19
Iteration:  4241charge 0 multiplicity 1
 O         0.356625         0.151013         0.092893
 C        -0.746029         0.406367         0.924721
 C        -2.162881         0.022459         0.162071
 C        -2.657619         1.301216         0.864090
 C        -2.611600         0.993401         2.443820
 C        -1.607368         2.103814         2.596394
 C        -1.264503         1.946999         1.174765
 O        -2.030388        -0.334295         2.793313
 C        -0.755008        -0.463198         2.203431
 H         0.047703        -0.033913        -0.797605
 H        -2.033598         0.148620        -0.937709
 H        -2.515237        -0.908459         0.440392
 H        -3.368207         2.094298         0.640508
 H        -3.434277         0.763192         3.113125
 H        -2.001694         3.112118         2.665951
 H        -0.908537         1.897671         3.368298
 H        -0.934616         2.733202         0.549067
 H         0.169108        -0.143138         2.858868
 H        -0.476355        -1.575152         2.051915
