19
Iteration:  3249charge 0 multiplicity 1
 O         0.402618         0.190247         0.184192
 C        -0.837203         0.276996         0.797346
 C        -2.130613         0.204405        -0.027248
 C        -2.622281         1.450248         0.883461
 C        -2.680411         0.943169         2.384832
 C        -1.504743         2.006830         2.749547
 C        -1.193552         1.804330         1.264393
 O        -2.097044        -0.274668         2.812240
 C        -0.834748        -0.583642         2.166027
 H         0.695555         1.090672        -0.005240
 H        -1.864443         0.454782        -1.117292
 H        -2.896086        -0.738028        -0.076359
 H        -3.452243         2.080443         0.712806
 H        -3.680574         1.032799         2.801337
 H        -1.772501         3.063349         2.902267
 H        -0.742967         1.622298         3.442893
 H        -0.665996         2.559480         0.659894
 H        -0.019866        -0.462316         2.861938
 H        -0.745957        -1.697168         1.819428
