19
Iteration:   822charge 0 multiplicity 1
 O         0.458002         0.113606         0.126405
 C        -0.754196         0.399704         0.766489
 C        -2.080744         0.327697         0.029550
 C        -2.699556         1.430541         0.960095
 C        -2.671212         0.996440         2.466863
 C        -1.562453         2.055070         2.857172
 C        -1.177443         1.874370         1.344292
 O        -2.124484        -0.378302         2.697687
 C        -0.870941        -0.651569         1.978099
 H         0.786341        -0.761145         0.319370
 H        -1.967723         0.752179        -1.023020
 H        -2.811474        -0.536309         0.088012
 H        -3.478229         2.262381         0.583161
 H        -3.735410         1.094852         2.939097
 H        -1.884677         3.049355         2.923728
 H        -0.965379         1.634226         3.640070
 H        -0.468855         2.573775         0.942817
 H        -0.044388        -0.416771         2.572614
 H        -0.864021        -1.715994         1.556479
