19
Iteration:   502
 O         0.451451         0.247425         0.069399
 C        -0.743148         0.371561         0.841399
 C        -2.099804         0.263926         0.163936
 C        -2.625462         1.393723         0.908400
 C        -2.648712         0.972529         2.370055
 C        -1.486692         1.884930         2.751474
 C        -1.106592         1.822056         1.298667
 O        -2.271490        -0.337896         2.698239
 C        -0.897143        -0.501017         2.138339
 H         0.295101        -0.469712        -0.579724
 H        -2.061928         0.314709        -0.970703
 H        -2.563031        -0.701838         0.387230
 H        -3.539089         2.051002         0.543369
 H        -3.575547         1.072384         2.987908
 H        -1.821280         2.864093         3.046037
 H        -0.854336         1.681125         3.539186
 H        -0.456695         2.675387         0.952339
 H        -0.151731        -0.044297         2.846789
 H        -0.758182        -1.596111         1.855344
