19
Iteration:    19charge 0 multiplicity 1
 O         0.535059         0.175843         0.208669
 C        -0.790699         0.442008         0.740360
 C        -2.257776         0.198994        -0.058764
 C        -2.635857         1.403217         0.890226
 C        -2.649292         1.012359         2.585256
 C        -1.412952         1.898543         2.847108
 C        -1.185700         1.926331         1.248976
 O        -2.301950        -0.409652         2.734022
 C        -0.842486        -0.578021         1.988112
 H         1.107195         0.843953         0.586274
 H        -2.210626         0.436287        -1.256582
 H        -2.804733        -0.719404         0.137766
 H        -3.344000         2.130167         0.535780
 H        -3.542099         1.220222         3.153617
 H        -1.637853         2.928690         3.293815
 H        -0.607934         1.332308         3.353893
 H        -0.678874         2.751469         0.658238
 H         0.181440        -0.370060         2.651663
 H        -0.800386        -1.572284         1.467187
