19
Iteration:  4198charge 0 multiplicity 1
 O         0.491243         0.214591         0.078722
 C        -0.802599         0.337866         0.824389
 C        -2.131229         0.058485         0.086164
 C        -2.704285         1.215632         0.991813
 C        -2.654388         1.042310         2.560896
 C        -1.608300         2.144218         2.647916
 C        -1.256709         1.725016         1.155270
 O        -2.018509        -0.260292         2.797443
 C        -0.812644        -0.408591         2.135833
 H         0.341050        -0.197585        -0.788826
 H        -2.259885         0.388364        -1.010543
 H        -2.482026        -0.924142         0.273720
 H        -3.450465         1.859869         0.516293
 H        -3.594729         1.239573         3.116895
 H        -2.085710         3.154269         2.769927
 H        -0.767732         1.912423         3.374365
 H        -0.853896         2.440932         0.412159
 H        -0.047851        -0.102640         2.936641
 H        -0.611986        -1.529516         2.118430
