19
Iteration:  1505
 O         0.409612        -0.026623         0.166024
 C        -0.738132         0.433123         0.828816
 C        -2.098763         0.208186         0.075775
 C        -2.656145         1.351942         0.947584
 C        -2.710144         0.986821         2.463537
 C        -1.576171         2.088719         2.788397
 C        -1.203976         1.881575         1.242357
 O        -2.123852        -0.363676         2.680002
 C        -0.765055        -0.467356         2.081957
 H         0.646344         0.619852        -0.551079
 H        -2.064082         0.470084        -1.009493
 H        -2.698003        -0.719448         0.319630
 H        -3.480270         1.970069         0.685512
 H        -3.691708         0.940206         2.936724
 H        -1.902686         3.118271         2.778509
 H        -0.794589         1.946608         3.487063
 H        -0.773086         2.791365         0.719303
 H        -0.054352        -0.281894         2.807979
 H        -0.675488        -1.529649         1.711846
