19
Iteration:   953charge 0 multiplicity 1
 O         0.395519         0.055340         0.063272
 C        -0.778208         0.330848         0.858024
 C        -2.107921         0.289901         0.024091
 C        -2.626532         1.375696         0.960125
 C        -2.680507         0.997613         2.522264
 C        -1.589684         1.975479         2.800252
 C        -1.132101         1.848441         1.283381
 O        -2.130608        -0.304123         2.686762
 C        -0.852084        -0.521202         2.022270
 H         0.996458         0.788713         0.215884
 H        -1.835830         0.756135        -0.952290
 H        -2.524224        -0.653169        -0.304741
 H        -3.612119         1.942619         0.658382
 H        -3.666728         1.027960         3.102018
 H        -1.802890         3.040498         3.054103
 H        -0.968517         1.707264         3.677512
 H        -0.579120         2.597744         0.805503
 H        -0.147351        -0.288663         2.884804
 H        -0.794394        -1.620780         1.768224
