19
Iteration:   599charge 0 multiplicity 1
 O         0.482401         0.221442         0.283479
 C        -0.798950         0.331706         0.795742
 C        -2.117706         0.271809        -0.039153
 C        -2.685150         1.359595         1.025314
 C        -2.600738         1.007211         2.597438
 C        -1.406071         1.976899         2.661509
 C        -1.147698         1.802442         1.147946
 O        -2.235652        -0.405122         2.700536
 C        -0.985032        -0.579958         2.079849
 H         0.821453         1.103098         0.074041
 H        -2.085790         0.859248        -1.080154
 H        -2.622320        -0.612805        -0.434112
 H        -3.485820         2.085538         0.646453
 H        -3.419174         1.218199         3.220006
 H        -1.560448         3.088654         2.923998
 H        -0.759690         1.700490         3.506711
 H        -0.770394         2.478958         0.300924
 H        -0.109842        -0.530710         2.726873
 H        -0.960547        -1.611551         1.714800
