19
Iteration:  3034
 O         0.397978         0.244116         0.141240
 C        -0.761274         0.359765         0.907528
 C        -2.140536         0.155598         0.141227
 C        -2.609969         1.375250         0.908293
 C        -2.619329         1.030131         2.404399
 C        -1.652686         2.108948         2.675378
 C        -1.110823         1.904417         1.314171
 O        -2.097487        -0.367719         2.724911
 C        -0.856156        -0.648111         2.033688
 H         0.193085        -0.384259        -0.601131
 H        -2.005346         0.478396        -0.869850
 H        -2.559673        -0.848440         0.243500
 H        -3.231215         2.236367         0.683561
 H        -3.572852         1.079091         2.950499
 H        -2.138983         3.057697         2.877119
 H        -1.109201         1.779216         3.632015
 H        -0.403196         2.518102         0.798200
 H        -0.007073        -0.711638         2.736617
 H        -0.858864        -1.764812         1.637182
