19
Iteration:   452charge 0 multiplicity 1
 O         0.502746         0.237612         0.244143
 C        -0.800905         0.380000         0.793771
 C        -2.092627         0.382468        -0.118868
 C        -2.688474         1.353324         1.080881
 C        -2.636740         0.910891         2.559303
 C        -1.410906         2.039474         2.619096
 C        -1.200646         1.762882         1.164704
 O        -2.164929        -0.364638         2.752161
 C        -0.985492        -0.618106         2.057445
 H         0.850816        -0.453211         0.809654
 H        -2.018317         1.038375        -0.974981
 H        -2.647031        -0.603400        -0.363823
 H        -3.484254         1.963606         0.906612
 H        -3.474123         0.926068         3.315080
 H        -1.908169         3.033955         2.719775
 H        -0.714578         2.124850         3.598749
 H        -0.793978         2.451973         0.471181
 H        -0.096585        -0.554442         2.685495
 H        -1.224817        -1.539242         1.575080
