19
Iteration:  2059charge 0 multiplicity 1
 O         0.406186         0.105174         0.085409
 C        -0.776956         0.365264         0.840729
 C        -2.095626         0.150224         0.122274
 C        -2.616025         1.380705         0.908680
 C        -2.616593         0.984580         2.446981
 C        -1.567212         2.036192         2.789005
 C        -1.108089         1.930115         1.215425
 O        -2.156763        -0.367152         2.697416
 C        -0.905676        -0.521197         2.169196
 H         0.154272         0.719490        -0.663940
 H        -1.930544         0.241441        -0.977188
 H        -2.741929        -0.803511         0.209760
 H        -3.501250         2.070382         0.566343
 H        -3.649158         0.986045         2.986709
 H        -1.828990         3.036934         2.993711
 H        -0.808333         1.684104         3.496837
 H        -0.527929         2.777369         0.699348
 H        -0.215137         0.068301         2.956707
 H        -0.603409        -1.619618         1.859842
