19
Iteration:  1940
 O         0.463814         0.169085         0.249132
 C        -0.770635         0.343452         0.849864
 C        -2.198413         0.234407         0.077672
 C        -2.670020         1.349503         0.945629
 C        -2.572766         0.982405         2.515001
 C        -1.493273         1.983153         2.723812
 C        -1.139907         1.884570         1.120972
 O        -2.230454        -0.380121         2.717821
 C        -0.829740        -0.541518         2.051839
 H         0.580286         0.729012        -0.512958
 H        -2.182325         0.469857        -0.998617
 H        -2.601582        -0.819020         0.160135
 H        -3.465828         2.109745         0.647305
 H        -3.557017         1.157206         3.087095
 H        -1.979300         3.013413         2.796864
 H        -0.720573         1.838813         3.509362
 H        -0.708068         2.690586         0.553491
 H        -0.129497        -0.163075         2.703232
 H        -0.769655        -1.602836         1.732120
