19
Iteration:  2608
 O         0.407498         0.042446         0.035358
 C        -0.757106         0.346590         0.860412
 C        -2.110658         0.199354         0.132669
 C        -2.561696         1.375186         0.882273
 C        -2.642360         0.982200         2.501611
 C        -1.635694         2.099439         2.764447
 C        -1.204861         1.913449         1.288473
 O        -2.087491        -0.299618         2.736071
 C        -0.875235        -0.586517         2.062180
 H         0.726474         0.924164        -0.184562
 H        -1.912014         0.518475        -0.907595
 H        -2.634716        -0.783674         0.255697
 H        -3.374783         2.007265         0.487015
 H        -3.685439         0.882581         2.949668
 H        -2.346502         2.980206         2.818228
 H        -0.870708         2.036327         3.629778
 H        -0.572078         2.591471         0.696407
 H         0.043424        -0.516097         2.788607
 H        -0.937795        -1.601571         1.778460
