19
Iteration:   794charge 0 multiplicity 1
 O         0.399417         0.052627         0.086497
 C        -0.743460         0.463519         0.749326
 C        -2.053935         0.356595        -0.017637
 C        -2.601203         1.401408         0.999763
 C        -2.624909         0.952376         2.510897
 C        -1.602864         1.940932         2.840729
 C        -1.123818         1.884543         1.292688
 O        -2.170124        -0.388062         2.709747
 C        -0.915942        -0.527873         2.051910
 H         0.650152        -0.832105         0.346658
 H        -1.978661         0.874530        -0.984293
 H        -2.679623        -0.467525        -0.337591
 H        -3.175632         2.168435         0.714516
 H        -3.537645         1.044683         3.033752
 H        -2.247268         2.879196         2.745624
 H        -1.035097         1.787640         3.813356
 H        -0.701509         2.821740         0.820921
 H        -0.084738        -0.140311         2.780700
 H        -0.781729        -1.544533         1.751444
