19
Iteration:   365charge 0 multiplicity 1
 O         0.357267         0.168089         0.051164
 C        -0.778454         0.362749         0.879857
 C        -2.150233         0.264522         0.008615
 C        -2.476092         1.383120         0.946336
 C        -2.628520         0.966699         2.451253
 C        -1.523408         1.984431         2.788210
 C        -1.135117         1.817354         1.294161
 O        -2.245812        -0.388450         2.624573
 C        -0.878596        -0.545957         2.199135
 H         0.997973         0.893094        -0.022400
 H        -1.980672         0.651912        -1.003262
 H        -2.897226        -0.650669        -0.176511
 H        -3.198893         2.100129         0.696406
 H        -3.592916         1.119189         2.996737
 H        -1.949259         2.975004         3.050770
 H        -0.821262         1.632673         3.625150
 H        -0.635702         2.617361         0.778757
 H        -0.107939        -0.133828         2.990180
 H        -0.655862        -1.596750         1.995159
