19
Iteration:  3138
 O         0.504942         0.281484        -0.002498
 C        -0.744934         0.302463         0.813419
 C        -2.084500         0.186111         0.121776
 C        -2.625695         1.381888         1.000413
 C        -2.726405         1.022928         2.498389
 C        -1.633965         2.115856         2.747362
 C        -1.110297         1.771206         1.345884
 O        -2.189501        -0.304223         2.708439
 C        -0.855436        -0.635676         2.049392
 H         0.837394        -0.630990        -0.045291
 H        -2.031334         0.483507        -1.011178
 H        -2.431371        -0.934612         0.125022
 H        -3.340521         2.104100         0.630410
 H        -3.650279         1.058254         3.056970
 H        -2.278342         3.010461         2.766675
 H        -0.850418         2.106797         3.462062
 H        -0.675332         2.500126         0.633373
 H        -0.266468        -0.413742         2.908066
 H        -0.880984        -1.762416         1.817373
