19
Iteration:  2623
 O         0.360000         0.133512         0.191124
 C        -0.786370         0.346028         0.866497
 C        -2.121758         0.198307         0.033093
 C        -2.681306         1.380789         1.019787
 C        -2.642897         0.981728         2.430745
 C        -1.571218         2.090597         2.683685
 C        -1.103664         1.829478         1.187303
 O        -2.125859        -0.344278         2.747285
 C        -0.783544        -0.592354         2.075019
 H         0.896011         0.917195        -0.025545
 H        -2.104504         0.423655        -0.996497
 H        -2.675760        -0.684321         0.091917
 H        -3.501798         2.020484         0.722979
 H        -3.536426         1.099741         2.976574
 H        -1.821315         3.148694         2.810240
 H        -0.981935         1.814120         3.513624
 H        -0.774140         2.713281         0.606523
 H         0.036637        -0.392316         2.736053
 H        -0.892026        -1.624455         1.560096
