19
Iteration:   368charge 0 multiplicity 1
 O         0.363581         0.157783         0.028146
 C        -0.759044         0.382080         0.879333
 C        -2.170718         0.235505        -0.006886
 C        -2.467342         1.381462         0.946520
 C        -2.618271         0.943078         2.464214
 C        -1.505998         2.005688         2.792297
 C        -1.130263         1.821963         1.326891
 O        -2.251351        -0.387509         2.604793
 C        -0.908647        -0.551821         2.232977
 H         0.996807         0.928402         0.010743
 H        -2.036522         0.647891        -1.041616
 H        -2.870629        -0.591894        -0.120027
 H        -3.261559         2.255500         0.762081
 H        -3.555019         1.061473         2.919570
 H        -2.055461         2.947989         2.958538
 H        -0.901897         1.711055         3.547524
 H        -0.602789         2.705522         0.803819
 H        -0.129640        -0.136437         2.903957
 H        -0.558161        -1.594415         2.058080
