19
Iteration:  3798charge 0 multiplicity 1
 O         0.376013         0.174033        -0.038485
 C        -0.803785         0.334104         0.871570
 C        -2.082066         0.076796         0.107708
 C        -2.657067         1.270520         0.904996
 C        -2.697670         0.990572         2.437087
 C        -1.635232         2.106603         2.683185
 C        -1.223330         1.888629         1.215063
 O        -2.056425        -0.266427         2.865057
 C        -0.770114        -0.487604         2.169187
 H         1.120733         0.064961         0.587044
 H        -1.958314         0.314043        -0.950241
 H        -2.444525        -0.990932        -0.033624
 H        -3.406857         2.035152         0.668666
 H        -3.583139         1.043704         3.028214
 H        -2.105625         3.078031         2.793488
 H        -0.863323         1.806720         3.394831
 H        -0.796110         2.529376         0.403515
 H         0.126690        -0.212837         2.866239
 H        -0.674006        -1.456272         1.908828
