19
Iteration:  1728
 O         0.418118         0.105539         0.198187
 C        -0.830285         0.387291         0.878582
 C        -2.123027         0.213407         0.053243
 C        -2.683835         1.371152         0.959084
 C        -2.596880         0.987862         2.460562
 C        -1.491085         1.981219         2.702751
 C        -1.253037         1.805243         1.176236
 O        -2.119836        -0.296170         2.692256
 C        -0.830519        -0.500289         2.117222
 H         0.779909         0.932088        -0.116862
 H        -2.061036         0.454636        -1.034546
 H        -2.627785        -0.743023         0.133245
 H        -3.446883         2.074137         0.614945
 H        -3.481229         0.906000         3.044081
 H        -1.732149         3.008872         2.820856
 H        -0.744622         1.642942         3.458162
 H        -0.748511         2.574547         0.570351
 H         0.008504        -0.276516         2.834576
 H        -0.914566        -1.591995         1.818255
