19
Iteration:  3855
 O         0.517341         0.252347         0.139476
 C        -0.782691         0.293894         0.789956
 C        -2.146186         0.118511         0.081090
 C        -2.705307         1.159609         0.976778
 C        -2.653825         0.994114         2.517780
 C        -1.507836         2.059991         2.626563
 C        -1.261189         1.849820         1.158578
 O        -2.138155        -0.279239         2.764248
 C        -0.817011        -0.377287         2.142136
 H         0.619319        -0.715658        -0.038002
 H        -2.189378         0.430269        -0.962575
 H        -2.596017        -0.924768         0.320278
 H        -3.617017         1.726544         0.617260
 H        -3.466157         1.129597         3.237725
 H        -1.835468         3.109956         2.906774
 H        -0.700819         2.038478         3.402963
 H        -1.052697         2.554407         0.373678
 H        -0.031758         0.127345         2.790659
 H        -0.603553        -1.339159         1.936478
