19
Iteration:  4094charge 0 multiplicity 1
 O         0.274856         0.230040         0.049278
 C        -0.798157         0.392044         0.919492
 C        -2.137495         0.027709         0.188563
 C        -2.611136         1.302585         0.846660
 C        -2.608390         1.006639         2.437816
 C        -1.647852         2.163162         2.654174
 C        -1.198682         1.849175         1.152991
 O        -2.000406        -0.345996         2.739372
 C        -0.723156        -0.451997         2.182994
 H         0.544370        -0.717198         0.154535
 H        -2.126920         0.214397        -0.839711
 H        -2.741349        -0.810381         0.643188
 H        -3.486208         1.866657         0.421024
 H        -3.544150         1.037176         3.007477
 H        -2.141477         3.060356         2.967948
 H        -1.001567         1.899983         3.459541
 H        -0.557952         2.539131         0.552617
 H         0.251812        -0.200448         2.978290
 H        -0.785175        -1.610879         1.996752
