19
Iteration:  3514
 O         0.446957         0.171543         0.251867
 C        -0.765559         0.327050         0.889243
 C        -2.190063         0.230756        -0.054331
 C        -2.706751         1.294099         0.937172
 C        -2.605525         0.942984         2.454233
 C        -1.503049         2.039000         2.617085
 C        -1.208710         1.858146         1.139167
 O        -2.147022        -0.362154         2.809432
 C        -0.800475        -0.398318         2.189897
 H         0.378714        -0.125371        -0.671675
 H        -2.150383         0.516488        -1.097474
 H        -2.562784        -0.794911        -0.076625
 H        -3.658623         1.883595         0.812111
 H        -3.508995         1.072033         3.077802
 H        -1.966174         3.064121         2.793816
 H        -0.696804         1.813721         3.376249
 H        -0.740722         2.544518         0.428634
 H         0.102148         0.018632         2.822995
 H        -0.531003        -1.581460         2.053029
