19
Iteration:  1924
 O         0.390099         0.010349         0.145540
 C        -0.802946         0.424743         0.837495
 C        -2.121651         0.213217         0.112815
 C        -2.585780         1.413180         0.988662
 C        -2.664762         0.931381         2.444966
 C        -1.529030         2.052884         2.691113
 C        -1.197117         1.899511         1.268097
 O        -2.145046        -0.425465         2.628327
 C        -0.817498        -0.441713         2.145431
 H         0.670224         0.676067        -0.508097
 H        -2.021601         0.540991        -0.946634
 H        -2.761668        -0.640519         0.198950
 H        -3.383354         2.042653         0.645700
 H        -3.563584         1.042940         2.988787
 H        -1.989822         2.975795         2.885521
 H        -0.734094         1.953378         3.456526
 H        -0.751306         2.755624         0.655286
 H        -0.071622        -0.264414         3.040484
 H        -0.587681        -1.484571         1.898038
