19
Iteration:  3096charge 0 multiplicity 1
 O         0.439931         0.234056         0.283403
 C        -0.850244         0.366065         0.847597
 C        -2.128128         0.277448        -0.021810
 C        -2.717499         1.353257         0.908219
 C        -2.562369         0.916599         2.446791
 C        -1.387620         1.967909         2.661306
 C        -1.308646         1.869584         1.208885
 O        -2.131284        -0.392003         2.712345
 C        -0.904233        -0.482574         2.096161
 H         0.896421        -0.551631         0.672121
 H        -2.058941         0.590673        -1.081049
 H        -2.675204        -0.685282         0.084969
 H        -3.459011         2.079194         0.681885
 H        -3.440132         1.092136         3.037428
 H        -1.630694         2.929214         3.129218
 H        -0.549821         1.507324         3.174168
 H        -0.747452         2.606344         0.607949
 H        -0.107175         0.115375         2.623957
 H        -0.764215        -1.487443         1.930407
