19
Iteration:  1624charge 0 multiplicity 1
 O         0.391745        -0.010276         0.053674
 C        -0.709117         0.366678         0.866005
 C        -2.170611         0.241882        -0.005187
 C        -2.655081         1.402429         0.935454
 C        -2.675350         0.983208         2.484330
 C        -1.650672         2.096975         2.772689
 C        -1.109777         1.770898         1.292719
 O        -2.100025        -0.376159         2.680804
 C        -0.794084        -0.419094         2.176649
 H         0.456113         0.534791        -0.727138
 H        -1.787154         0.609107        -0.953339
 H        -2.781874        -0.685234        -0.012448
 H        -3.436182         2.105952         0.675265
 H        -3.641941         0.855173         2.963000
 H        -2.211329         3.085623         2.872594
 H        -0.932418         1.959345         3.594811
 H        -0.471256         2.630828         0.814066
 H        -0.122722         0.106815         3.026744
 H        -0.459435        -1.461209         2.280148
