19
Iteration:  3182
 O         0.465877         0.143243         0.258197
 C        -0.817601         0.379094         0.849025
 C        -2.093220         0.252139         0.043094
 C        -2.680437         1.414237         0.968503
 C        -2.669642         0.946889         2.464351
 C        -1.510991         1.963878         2.700881
 C        -1.205799         1.914781         1.138902
 O        -2.181653        -0.380554         2.729176
 C        -0.800790        -0.487010         2.090901
 H         0.420096        -0.365081        -0.563750
 H        -1.972472         0.693569        -1.030763
 H        -2.597974        -0.803202        -0.134211
 H        -3.503391         2.062755         0.682625
 H        -3.598543         0.908194         3.018978
 H        -1.893567         2.987352         2.877541
 H        -0.787708         1.694722         3.450353
 H        -0.573561         2.722206         0.728989
 H         0.049346        -0.165165         2.682927
 H        -0.647158        -1.658595         1.988299
