19
Iteration:  1886charge 0 multiplicity 1
 O         0.431694        -0.005476         0.074633
 C        -0.704605         0.333542         0.803101
 C        -2.141383         0.265934         0.029663
 C        -2.587216         1.352502         0.986400
 C        -2.745077         0.974461         2.474921
 C        -1.619741         2.016077         2.767837
 C        -1.177453         1.838407         1.311855
 O        -2.095395        -0.309256         2.724610
 C        -0.858132        -0.410486         2.140279
 H         0.386994         0.457281        -0.764849
 H        -2.011978         0.705858        -0.954988
 H        -2.551661        -0.775332        -0.024440
 H        -3.265229         2.220495         0.686776
 H        -3.795130         0.804935         2.910607
 H        -1.930411         3.148082         2.872499
 H        -0.771443         1.834483         3.474263
 H        -0.714707         2.639529         0.792447
 H         0.095099        -0.087957         2.832441
 H        -0.716157        -1.479975         1.783426
