19
Iteration:   323charge 0 multiplicity 1
 O         0.520426         0.079312         0.285694
 C        -0.737439         0.375078         0.740653
 C        -2.176071         0.304687        -0.040674
 C        -2.571461         1.306053         1.003513
 C        -2.589850         0.970866         2.552098
 C        -1.501939         2.062112         2.815431
 C        -1.210070         1.927873         1.198155
 O        -2.189279        -0.365287         2.738239
 C        -0.987872        -0.592988         1.930981
 H         0.879200         1.013765         0.376559
 H        -2.193942         0.713090        -1.046308
 H        -2.748743        -0.679464        -0.043525
 H        -3.404598         2.033662         0.739144
 H        -3.582722         1.114583         2.955483
 H        -1.998035         2.985710         3.104158
 H        -0.737173         1.716012         3.447960
 H        -0.964659         2.667536         0.365359
 H        -0.044075        -0.806417         2.484009
 H        -1.100042        -1.547888         1.399175
