19
Iteration:  4586charge 0 multiplicity 1
 O         0.479650         0.205448         0.317730
 C        -0.855611         0.405300         0.814054
 C        -2.247144         0.080192         0.146911
 C        -2.730969         1.223959         0.920399
 C        -2.536256         0.987048         2.487471
 C        -1.449490         2.133356         2.528276
 C        -1.294250         1.911179         1.015372
 O        -2.035685        -0.408249         2.818695
 C        -0.848127        -0.470469         2.154823
 H         0.436595         0.696646        -0.511505
 H        -2.151632         0.453049        -0.832139
 H        -2.541520        -0.981584         0.010880
 H        -3.670116         1.628339         0.643631
 H        -3.359527         1.166125         3.117167
 H        -1.911438         3.081386         2.819090
 H        -0.746618         1.905338         3.322134
 H        -0.839126         2.632164         0.289307
 H        -0.053891        -0.172828         2.843190
 H        -0.618280        -1.527877         1.877702
