19
Iteration:   283
 O         0.462457         0.149103         0.227674
 C        -0.817839         0.313242         0.888615
 C        -2.117536         0.317136         0.010505
 C        -2.646730         1.422763         0.946330
 C        -2.636202         0.986229         2.526724
 C        -1.489097         1.955208         2.769153
 C        -1.195010         1.816584         1.199871
 O        -2.179652        -0.342504         2.635042
 C        -0.862429        -0.596150         2.061006
 H         0.529740         0.844075        -0.425577
 H        -1.817198         0.889900        -0.935961
 H        -2.654759        -0.553552        -0.153518
 H        -3.410603         2.223600         0.568247
 H        -3.496895         1.057613         3.160772
 H        -1.905402         2.963578         3.095038
 H        -0.759645         1.614037         3.570939
 H        -0.756924         2.627273         0.580849
 H        -0.062208        -0.567151         2.777077
 H        -0.911001        -1.705825         1.695609
