19
Iteration:  4281charge 0 multiplicity 1
 O         0.518981         0.088646         0.217445
 C        -0.764033         0.342079         0.709348
 C        -2.184920         0.055842        -0.004549
 C        -2.729677         1.220389         1.057610
 C        -2.658736         0.998856         2.622592
 C        -1.487477         2.124078         2.600434
 C        -1.336379         1.852769         1.083734
 O        -2.081785        -0.299155         2.792295
 C        -0.779136        -0.396160         2.162102
 H         0.595251         0.770593        -0.489934
 H        -2.218987         0.423853        -1.018651
 H        -2.673680        -1.004253        -0.008223
 H        -3.542363         1.864457         0.697575
 H        -3.567147         1.268774         3.183214
 H        -1.954038         3.138046         2.698161
 H        -0.657209         2.199904         3.349252
 H        -1.147031         2.773779         0.510916
 H         0.069715        -0.111475         2.813607
 H        -0.508668        -1.454111         1.900631
