19
Iteration:  2523
 O         0.560143         0.222381         0.326076
 C        -0.831138         0.377495         0.817932
 C        -2.161415         0.163935         0.048507
 C        -2.699129         1.308474         1.060502
 C        -2.578852         1.030930         2.516046
 C        -1.397643         2.024402         2.616446
 C        -1.235857         1.862959         1.156883
 O        -2.189954        -0.316505         2.723085
 C        -0.979236        -0.580180         1.973407
 H         0.702747         0.436348        -0.613645
 H        -2.017892         0.365671        -0.991886
 H        -2.315084        -0.886413         0.113325
 H        -3.606309         1.884159         0.983955
 H        -3.542571         1.229607         3.016073
 H        -1.869697         2.959396         2.890478
 H        -0.726621         1.799344         3.376923
 H        -0.784222         2.653472         0.526875
 H        -0.044624        -0.586643         2.532932
 H        -1.016529        -1.715565         1.670849
