19
Iteration:   749
 O         0.463506         0.360007         0.203818
 C        -0.819360         0.385716         0.827427
 C        -2.169907         0.227710         0.079802
 C        -2.631204         1.412185         0.946483
 C        -2.602659         1.040641         2.518984
 C        -1.402824         1.905428         2.741852
 C        -1.068933         1.797727         1.246774
 O        -2.314153        -0.402313         2.611753
 C        -0.928500        -0.594120         2.039468
 H         0.948282        -0.481412         0.177702
 H        -2.151550         0.459941        -0.983419
 H        -2.579234        -0.810520         0.307102
 H        -3.495220         1.902045         0.671258
 H        -3.489402         1.436444         3.078644
 H        -1.873398         2.913310         2.854937
 H        -0.711916         1.496147         3.545162
 H        -0.480060         2.522130         0.644944
 H        -0.053328        -0.374555         2.767961
 H        -0.926339        -1.595028         1.634373
