19
Iteration:  3825charge 0 multiplicity 1
 O         0.391984         0.115063         0.090222
 C        -0.807117         0.330506         0.882173
 C        -2.141380         0.160709         0.146946
 C        -2.700521         1.280902         0.902890
 C        -2.632762         0.975283         2.490378
 C        -1.663369         2.137198         2.625084
 C        -1.190849         1.923452         1.225355
 O        -2.044318        -0.374668         2.730548
 C        -0.703854        -0.385931         2.131318
 H         0.778058        -0.687468         0.482052
 H        -2.077054         0.221881        -0.955738
 H        -2.618885        -0.787769         0.143000
 H        -3.540512         1.938223         0.618839
 H        -3.479792         1.052147         3.246380
 H        -2.349703         3.043075         2.574408
 H        -0.947882         2.138479         3.490935
 H        -0.848433         2.587191         0.452826
 H         0.206291         0.011933         2.765118
 H        -0.502747        -1.541167         1.758367
