19
Iteration:  2968
 O         0.448224         0.025712         0.261205
 C        -0.796538         0.461884         0.908753
 C        -2.181399         0.245349         0.013982
 C        -2.656517         1.376622         0.979918
 C        -2.593431         0.953381         2.520961
 C        -1.517503         2.086237         2.657990
 C        -1.267455         1.891239         1.169339
 O        -2.118130        -0.395728         2.705570
 C        -0.841269        -0.555515         2.029039
 H         0.912682         0.755318        -0.158374
 H        -1.986441         0.643421        -0.984596
 H        -2.605461        -0.772148        -0.111383
 H        -3.413974         2.086782         0.714324
 H        -3.498562         1.060146         3.120159
 H        -2.027470         2.971768         3.012059
 H        -0.619293         1.930414         3.319794
 H        -0.909389         2.746860         0.645498
 H        -0.084893        -0.603050         2.693021
 H        -0.698997        -1.532246         1.487619
