19
Iteration:  1203charge 0 multiplicity 1
 O         0.394064         0.001505         0.059508
 C        -0.730365         0.382791         0.892003
 C        -2.085269         0.247135         0.072893
 C        -2.663945         1.361420         0.915610
 C        -2.726980         0.968044         2.452249
 C        -1.522774         1.940495         2.781926
 C        -1.144773         1.890024         1.285853
 O        -2.163018        -0.333700         2.673368
 C        -0.813347        -0.388780         2.143249
 H         0.314554         0.572736        -0.726462
 H        -2.043469         0.756551        -0.981187
 H        -2.460411        -0.759179         0.139917
 H        -3.411021         2.036199         0.570264
 H        -3.686576         0.946196         2.985450
 H        -2.067686         2.889172         2.955021
 H        -0.819565         1.747656         3.631570
 H        -0.476878         2.730633         0.759862
 H        -0.042500        -0.101327         2.939681
 H        -0.651947        -1.439748         2.033285
