19
Iteration:   800
 O         0.413560         0.040029         0.085613
 C        -0.718806         0.462190         0.757401
 C        -2.103863         0.330308        -0.050497
 C        -2.530069         1.403623         0.997191
 C        -2.635754         0.897373         2.521898
 C        -1.628014         1.949181         2.844663
 C        -1.120088         1.897277         1.314348
 O        -2.132113        -0.345143         2.700648
 C        -0.958995        -0.501378         2.040857
 H         0.685012        -0.883740         0.326978
 H        -1.946294         1.075601        -0.866627
 H        -2.631954        -0.701499        -0.081393
 H        -3.248376         2.348085         0.729793
 H        -3.687417         1.045828         3.025814
 H        -2.216190         2.831667         2.864473
 H        -1.071953         1.799967         3.741822
 H        -0.888161         2.797680         0.781770
 H        -0.130842        -0.217351         2.625322
 H        -0.912419        -1.593441         1.717223
