19
Iteration:  1844
 O         0.500611         0.264300         0.313245
 C        -0.825571         0.380268         0.904734
 C        -2.134896         0.167222         0.022717
 C        -2.681515         1.322835         0.986154
 C        -2.591096         0.947349         2.591439
 C        -1.377182         2.146551         2.655378
 C        -1.235413         1.810492         1.155148
 O        -2.157433        -0.316244         2.670280
 C        -0.952029        -0.659037         1.981353
 H         0.349669         0.073650        -0.616102
 H        -2.084503         0.589481        -0.972259
 H        -2.665065        -0.803897        -0.007657
 H        -3.469981         1.979567         0.637910
 H        -3.516191         1.086422         3.194467
 H        -1.769900         3.207761         2.938511
 H        -0.553879         1.807545         3.299936
 H        -0.781715         2.531057         0.437434
 H        -0.140366        -0.502329         2.751080
 H        -1.179739        -1.637477         1.607042
