19
Iteration:   821charge 0 multiplicity 1
 O         0.460866         0.104143         0.123367
 C        -0.759093         0.399591         0.760374
 C        -2.078373         0.334374         0.028885
 C        -2.690455         1.422592         0.968742
 C        -2.680929         0.990018         2.466814
 C        -1.567228         2.060102         2.860421
 C        -1.175328         1.877673         1.349756
 O        -2.124202        -0.376452         2.700919
 C        -0.871322        -0.641953         1.974908
 H         0.784685        -0.770855         0.316399
 H        -1.984801         0.716001        -1.068168
 H        -2.798882        -0.509405         0.072270
 H        -3.480007         2.258617         0.593891
 H        -3.732739         1.073253         2.917473
 H        -1.902943         3.083879         2.926354
 H        -0.944467         1.612992         3.620811
 H        -0.460284         2.570223         0.941991
 H        -0.019315        -0.402014         2.593384
 H        -0.871296        -1.696157         1.537379
