19
Iteration:  3045
 O         0.430079         0.258802         0.154320
 C        -0.777327         0.357461         0.892588
 C        -2.105238         0.160078         0.063406
 C        -2.595381         1.366882         0.942987
 C        -2.658032         0.960741         2.480052
 C        -1.605151         2.155987         2.771534
 C        -1.113368         1.869613         1.247284
 O        -2.120618        -0.330705         2.731124
 C        -0.864779        -0.669310         2.021580
 H         0.403960        -0.567574        -0.381930
 H        -2.006305         0.418063        -0.977415
 H        -2.731405        -0.735682         0.123369
 H        -3.388880         1.993189         0.489304
 H        -3.629013         0.963969         3.014950
 H        -2.156782         3.102102         2.774968
 H        -0.808356         2.165151         3.595054
 H        -0.695441         2.636417         0.623904
 H         0.008943        -0.744421         2.685341
 H        -1.207739        -1.604696         1.419876
