19
Iteration:  3552charge 0 multiplicity 1
 O         0.480428         0.048478         0.111548
 C        -0.765960         0.361922         0.784679
 C        -2.090637         0.059527         0.139318
 C        -2.714531         1.248443         0.986625
 C        -2.661973         1.040191         2.498797
 C        -1.592814         2.159040         2.714364
 C        -1.208086         1.887754         1.229216
 O        -2.141722        -0.298157         2.660027
 C        -0.787375        -0.467011         2.107228
 H         0.656591         0.889559        -0.330109
 H        -1.995950         0.157196        -0.952988
 H        -2.584215        -0.823608         0.573872
 H        -3.487360         1.962109         0.740567
 H        -3.660035         1.176888         2.960299
 H        -2.034451         3.128219         2.847459
 H        -0.830057         1.928931         3.427814
 H        -0.687682         2.690544         0.642978
 H        -0.103818        -0.250535         2.941831
 H        -0.731612        -1.464423         1.837040
