19
Iteration:  1978charge 0 multiplicity 1
 O         0.500092         0.228194         0.307092
 C        -0.799898         0.395662         0.764210
 C        -2.084719         0.213320         0.005477
 C        -2.724335         1.286715         0.989258
 C        -2.605462         1.046760         2.520276
 C        -1.485860         2.008894         2.707309
 C        -1.200296         1.819716         1.117958
 O        -2.127269        -0.316411         2.838362
 C        -0.963204        -0.614788         1.987693
 H         0.421784         0.643529        -0.588979
 H        -2.038706         0.722134        -0.965005
 H        -2.563383        -0.726346        -0.039783
 H        -3.570256         1.800306         0.601736
 H        -3.412461         1.312254         3.119754
 H        -1.821710         2.995346         3.089160
 H        -0.629198         1.663871         3.319535
 H        -0.666673         2.411870         0.320790
 H        -0.077861        -0.813552         2.769587
 H        -1.136456        -1.585640         1.512916
