19
Iteration:  1890charge 0 multiplicity 1
 O         0.417777        -0.022016         0.056739
 C        -0.738205         0.325435         0.799683
 C        -2.107560         0.235824         0.029026
 C        -2.596233         1.365094         0.998269
 C        -2.738434         1.006326         2.474073
 C        -1.630503         2.004126         2.795987
 C        -1.196556         1.844831         1.340092
 O        -2.100126        -0.310595         2.697482
 C        -0.804944        -0.408309         2.140201
 H         0.573448         0.443377        -0.806929
 H        -1.988557         0.719560        -0.958773
 H        -2.607951        -0.714242        -0.086497
 H        -3.242272         2.074603         0.595872
 H        -3.671555         1.034225         2.963238
 H        -1.959540         3.038259         2.822242
 H        -0.857332         1.828949         3.532563
 H        -0.757345         2.738373         0.777904
 H         0.034406        -0.020342         2.886119
 H        -0.754228        -1.426005         1.843103
