19
Iteration:  4780
 O         0.372570         0.091460        -0.043115
 C        -0.705264         0.360003         0.850092
 C        -2.147987         0.022383         0.195345
 C        -2.622658         1.247472         0.970341
 C        -2.762295         1.084085         2.456885
 C        -1.708957         2.133473         2.724427
 C        -1.163605         1.825056         1.221085
 O        -2.037805        -0.269518         2.768817
 C        -0.733199        -0.419429         2.078535
 H         1.067520         0.360367         0.573140
 H        -1.970609         0.181562        -0.874350
 H        -2.553896        -0.979616         0.237003
 H        -3.418111         1.888355         0.578340
 H        -3.671440         1.130313         2.995466
 H        -2.169395         3.099321         2.691888
 H        -1.081783         1.891431         3.626510
 H        -0.784281         2.705381         0.624088
 H         0.177208        -0.085497         2.699528
 H        -0.722070        -1.494804         1.830575
