19
Iteration:  2178charge 0 multiplicity 1
 O         0.397768         0.130478         0.086278
 C        -0.753968         0.318077         0.812728
 C        -2.115359         0.135797         0.190160
 C        -2.566427         1.413553         0.902513
 C        -2.677151         0.981656         2.505926
 C        -1.573905         2.031106         2.705925
 C        -1.100792         1.782035         1.292160
 O        -2.209593        -0.307039         2.673467
 C        -0.793411        -0.483890         2.084101
 H         0.358409         0.791528        -0.605675
 H        -2.282964         0.251655        -0.854548
 H        -2.710088        -0.755155         0.378959
 H        -3.440464         2.060667         0.525098
 H        -3.754008         1.062064         2.840013
 H        -2.027772         3.048729         2.800056
 H        -0.781462         2.063648         3.509807
 H        -0.426210         2.597076         0.892382
 H        -0.350982        -0.030179         2.873678
 H        -0.517779        -1.526749         2.120158
