19
Iteration:    92
 O         0.436379         0.078480         0.100716
 C        -0.719995         0.460389         0.822434
 C        -2.126164         0.314836         0.033565
 C        -2.592732         1.415867         1.003963
 C        -2.714743         0.971988         2.443053
 C        -1.631193         1.903042         2.836372
 C        -1.051031         1.864023         1.354369
 O        -2.156418        -0.332419         2.710349
 C        -0.853323        -0.545168         1.978335
 H         0.060154        -0.502338        -0.600684
 H        -1.853336         0.836614        -0.783827
 H        -2.634844        -0.640117        -0.174886
 H        -3.339161         2.283692         0.655768
 H        -3.727989         1.001455         2.981148
 H        -1.991291         2.922628         2.910601
 H        -1.222636         1.582360         3.795685
 H        -0.679534         2.803664         0.958669
 H        -0.055674        -0.428386         2.623401
 H        -0.657045        -1.530419         1.554661
