19
Iteration:  3930charge 0 multiplicity 1
 O         0.478432         0.149746         0.103004
 C        -0.717859         0.385844         0.793093
 C        -2.150034         0.108420         0.095005
 C        -2.691991         1.238265         0.955852
 C        -2.614678         0.976870         2.535908
 C        -1.623499         2.127682         2.640535
 C        -1.298582         1.844577         1.186240
 O        -2.068729        -0.298049         2.809809
 C        -0.803686        -0.412401         2.073861
 H         0.422342        -0.811431         0.209819
 H        -2.123596         0.520337        -0.902959
 H        -2.490090        -0.983181         0.249424
 H        -3.438236         2.034614         0.634284
 H        -3.587133         1.005331         3.020918
 H        -2.216239         3.065468         2.738625
 H        -0.817082         2.117505         3.415814
 H        -0.843638         2.605628         0.515730
 H        -0.021473         0.060390         2.658721
 H        -0.529610        -1.583391         2.048189
