19
Iteration:  2821charge 0 multiplicity 1
 O         0.441971         0.197318         0.149974
 C        -0.828404         0.353976         0.900335
 C        -2.104542         0.244807        -0.018031
 C        -2.660519         1.360465         0.869186
 C        -2.612307         0.974196         2.534050
 C        -1.484986         1.995739         2.684656
 C        -1.157961         1.837314         1.248460
 O        -2.128930        -0.326364         2.850449
 C        -0.940878        -0.618453         2.063417
 H         0.468264         1.069471        -0.273259
 H        -1.725117         0.674526        -0.937490
 H        -2.634653        -0.679409        -0.005535
 H        -3.674416         1.800718         0.593535
 H        -3.605124         1.109574         2.974007
 H        -1.893424         3.086450         2.728409
 H        -0.586133         1.780972         3.334074
 H        -0.724216         2.685380         0.603008
 H        -0.036352        -0.698710         2.589802
 H        -1.018693        -1.658979         1.572540
