19
Iteration:  1257
 O         0.455713         0.184951         0.312082
 C        -0.825940         0.359043         0.883895
 C        -2.159772         0.204809         0.085612
 C        -2.642186         1.356473         0.926814
 C        -2.603733         1.048530         2.504176
 C        -1.481983         2.030279         2.637310
 C        -1.249343         1.846870         1.171331
 O        -2.083653        -0.340293         2.712226
 C        -0.911979        -0.642326         1.983001
 H         0.770706         0.912509        -0.288668
 H        -2.106178         0.534735        -1.053781
 H        -2.647299        -0.750356         0.118623
 H        -3.388903         2.049910         0.750506
 H        -3.472234         1.100481         3.165341
 H        -1.834594         3.025666         2.988806
 H        -0.774924         1.734752         3.452328
 H        -0.690998         2.480631         0.403235
 H        -0.037085        -0.527706         2.643735
 H        -1.168279        -1.636150         1.691493
