19
Iteration:  3063
 O         0.530716         0.258478         0.173406
 C        -0.785787         0.346554         0.782132
 C        -2.071369         0.274935        -0.005754
 C        -2.693652         1.283425         0.984291
 C        -2.607301         0.988034         2.563073
 C        -1.523171         2.078151         2.663262
 C        -1.236549         1.801086         1.251874
 O        -2.151226        -0.353333         2.785537
 C        -0.986324        -0.575587         1.987721
 H         0.846096        -0.664593         0.080277
 H        -2.061412         0.722354        -0.998420
 H        -2.452046        -0.742752        -0.095071
 H        -3.416496         2.063494         0.805974
 H        -3.506999         1.151085         3.144860
 H        -1.989947         3.078370         2.783345
 H        -0.840901         1.942226         3.500169
 H        -0.666325         2.526748         0.635262
 H        -0.089422        -0.419481         2.690781
 H        -0.942118        -1.608770         1.951367
