19
Iteration:  2353charge 0 multiplicity 1
 O         0.476811         0.026089         0.251362
 C        -0.757442         0.389838         0.806228
 C        -2.174034         0.223035        -0.019680
 C        -2.638990         1.325498         0.972234
 C        -2.596903         0.974931         2.502186
 C        -1.543516         2.101596         2.701782
 C        -1.199773         1.960923         1.240181
 O        -2.127870        -0.340697         2.777119
 C        -0.864136        -0.526076         2.000036
 H         0.309489         0.176471        -0.690893
 H        -2.058853         0.706323        -0.939818
 H        -2.588812        -0.777191        -0.014387
 H        -3.600003         1.791586         0.708887
 H        -3.573148         1.060620         2.952677
 H        -2.109787         3.031481         2.972366
 H        -0.781244         1.768761         3.476206
 H        -0.711014         2.772048         0.694893
 H        -0.049262        -0.483514         2.774785
 H        -1.013474        -1.526198         1.741628
