19
Iteration:  3021
 O         0.397740         0.218984         0.091456
 C        -0.782236         0.322728         0.897974
 C        -2.091173         0.227591         0.148533
 C        -2.583128         1.454506         0.893640
 C        -2.702370         0.971613         2.402426
 C        -1.603040         2.012388         2.753936
 C        -1.113740         1.798290         1.281138
 O        -2.119661        -0.333434         2.693044
 C        -0.833116        -0.566901         2.122104
 H         0.135770        -0.046758        -0.793413
 H        -2.021783         0.263768        -0.882166
 H        -2.702199        -0.603639         0.383999
 H        -3.475950         1.898594         0.506893
 H        -3.688024         0.940277         2.861561
 H        -2.002182         3.042518         2.773493
 H        -0.877413         1.879678         3.617143
 H        -0.485491         2.594358         0.860587
 H        -0.009737        -0.213365         2.813834
 H        -0.710647        -1.677116         1.870723
