19
Iteration:  4301charge 0 multiplicity 1
 O         0.392974         0.170363         0.165846
 C        -0.820668         0.364399         0.881708
 C        -2.114775         0.137237         0.087015
 C        -2.745043         1.178792         0.908218
 C        -2.544231         0.955819         2.509181
 C        -1.512462         2.124298         2.538079
 C        -1.292888         1.851387         1.076158
 O        -2.043007        -0.306603         2.921355
 C        -0.858657        -0.479452         2.106911
 H         0.790427         1.032381         0.017205
 H        -2.033712         0.479490        -0.949152
 H        -2.447460        -0.970697         0.011963
 H        -3.627004         1.784863         0.650482
 H        -3.423561         1.261674         3.101155
 H        -1.869239         3.174915         2.758463
 H        -0.655496         1.958025         3.312526
 H        -0.766433         2.474818         0.252639
 H        -0.083320        -0.176668         2.770648
 H        -0.719013        -1.549136         1.958678
