19
Iteration:  4981
 O         0.481632         0.251836         0.018042
 C        -0.765573         0.259506         0.757442
 C        -2.102785         0.129882         0.050291
 C        -2.696330         1.244877         0.932977
 C        -2.651939         1.081196         2.617469
 C        -1.590567         2.116354         2.551105
 C        -1.230320         1.753885         1.168626
 O        -2.073598        -0.292714         2.934980
 C        -0.916772        -0.578179         2.147163
 H         0.982693         0.996864         0.378521
 H        -1.947478         0.650188        -0.928193
 H        -2.404586        -0.953721         0.085558
 H        -3.523949         1.860201         0.708234
 H        -3.611014         0.984808         3.165924
 H        -1.956459         3.184633         2.571778
 H        -0.863087         2.086999         3.358723
 H        -0.587920         2.441797         0.601516
 H        -0.095871        -0.035102         2.666399
 H        -0.967615        -1.771723         2.002257
