19
Iteration:  2074charge 0 multiplicity 1
 O         0.403880         0.182772         0.183996
 C        -0.793106         0.345689         0.877035
 C        -2.137227         0.188098         0.097010
 C        -2.630928         1.327219         0.916523
 C        -2.636493         1.002558         2.470133
 C        -1.459197         2.045240         2.682755
 C        -1.188773         1.842365         1.271382
 O        -2.179647        -0.309406         2.698579
 C        -0.806991        -0.558375         2.083740
 H         0.337948         0.540703        -0.711318
 H        -2.029745         0.563583        -0.929310
 H        -2.504416        -0.822941         0.207596
 H        -3.445613         1.883232         0.572242
 H        -3.548909         1.226954         2.962546
 H        -2.101956         3.003047         2.771182
 H        -0.738539         1.820399         3.474093
 H        -0.593126         2.489638         0.697105
 H         0.026950        -0.502920         2.760695
 H        -1.053881        -1.603223         1.856617
