19
Iteration:   902charge 0 multiplicity 1
 O         0.449037         0.110839         0.228597
 C        -0.845246         0.418713         0.825995
 C        -2.096410         0.305464         0.066489
 C        -2.648240         1.406101         0.955690
 C        -2.676727         0.994254         2.448079
 C        -1.520283         2.030841         2.804267
 C        -1.150661         1.882344         1.301383
 O        -2.130423        -0.407718         2.674108
 C        -0.864090        -0.593146         1.991633
 H         0.412524        -0.071857        -0.715910
 H        -1.948777         0.722254        -0.925923
 H        -2.639775        -0.721778         0.055229
 H        -3.382672         2.022233         0.511972
 H        -3.625817         1.069417         2.969695
 H        -1.887304         2.986186         3.130286
 H        -0.810030         1.783665         3.577273
 H        -0.605777         2.634321         0.634087
 H        -0.052456        -0.545379         2.672770
 H        -0.834554        -1.578410         1.492520
