19
Iteration:  3630
 O         0.511354         0.118803         0.115373
 C        -0.747518         0.417621         0.785786
 C        -2.092724         0.074836         0.106037
 C        -2.717589         1.262422         1.004541
 C        -2.671304         0.986591         2.559064
 C        -1.485222         2.058837         2.625994
 C        -1.297081         1.908629         1.122889
 O        -2.144875        -0.329950         2.780768
 C        -0.914261        -0.428785         2.075360
 H         1.241353         0.482833         0.640902
 H        -2.271414         0.402425        -1.022739
 H        -2.370589        -0.993164         0.002842
 H        -3.599612         1.871685         0.735632
 H        -3.663223         1.169581         3.155371
 H        -1.739104         3.114712         2.722552
 H        -0.598969         1.812051         3.191585
 H        -0.845589         2.702345         0.430317
 H        -0.099388        -0.204374         3.015197
 H        -0.709789        -1.459076         1.991375
