19
Iteration:   877charge 0 multiplicity 1
 O         0.551987         0.308874         0.226397
 C        -0.797370         0.386634         0.768715
 C        -2.146218         0.206981         0.027946
 C        -2.665139         1.391046         0.975454
 C        -2.601564         0.979817         2.578103
 C        -1.397094         1.880540         2.736491
 C        -1.176873         1.856593         1.209354
 O        -2.288768        -0.363754         2.601959
 C        -0.965442        -0.541257         2.122255
 H         0.634694        -0.288974        -0.548961
 H        -2.035639         0.605744        -0.981194
 H        -2.750238        -0.715792         0.205781
 H        -3.473123         2.148883         0.514511
 H        -3.506297         1.215806         3.261264
 H        -1.687894         2.782310         3.197743
 H        -0.588187         1.588779         3.367687
 H        -0.602425         2.597497         0.677995
 H        -0.176471        -0.460879         2.866261
 H        -0.928884        -1.627329         1.725771
