19
Iteration:  2072charge 0 multiplicity 1
 O         0.389380         0.181252         0.167682
 C        -0.785815         0.328701         0.881529
 C        -2.121761         0.174558         0.094206
 C        -2.634597         1.335885         0.919523
 C        -2.637561         0.998581         2.448454
 C        -1.461526         2.039247         2.687397
 C        -1.163355         1.862034         1.279486
 O        -2.177633        -0.305281         2.698710
 C        -0.831896        -0.542645         2.092957
 H         0.379344         0.544008        -0.717235
 H        -2.026525         0.538480        -0.943772
 H        -2.591546        -0.837342         0.235115
 H        -3.531166         1.856770         0.562171
 H        -3.586966         1.175802         3.007220
 H        -2.089632         2.941109         2.846802
 H        -0.737089         1.870309         3.461186
 H        -0.584236         2.593009         0.739189
 H         0.057717        -0.488124         2.822453
 H        -0.936102        -1.679397         1.845937
