19
Iteration:  1549
 O         0.540898         0.243106         0.348059
 C        -0.860432         0.326808         0.847423
 C        -2.178572         0.273275        -0.066813
 C        -2.745066         1.276382         0.958630
 C        -2.632676         1.007979         2.542297
 C        -1.404949         2.135955         2.619670
 C        -1.219086         1.732679         1.187940
 O        -2.089032        -0.329584         2.817632
 C        -0.929386        -0.611316         2.021187
 H         0.494628         0.621257        -0.573998
 H        -2.037454         0.893910        -0.996162
 H        -2.452338        -0.792593        -0.314647
 H        -3.429621         2.036163         0.662866
 H        -3.539645         1.044580         3.188247
 H        -1.750549         3.113635         2.764865
 H        -0.780816         1.676146         3.282367
 H        -0.702688         2.275069         0.310551
 H        -0.125186        -0.652021         2.609262
 H        -1.158137        -1.647005         1.668858
