19
Iteration:  2448
 O         0.410458        -0.045735         0.077729
 C        -0.727882         0.308913         0.793202
 C        -2.071744         0.176040         0.107700
 C        -2.631227         1.413746         1.019439
 C        -2.664335         0.950963         2.463339
 C        -1.547941         2.046327         2.839717
 C        -1.238225         1.894412         1.221584
 O        -2.205353        -0.291737         2.575004
 C        -0.805484        -0.383442         2.135799
 H         0.895826         0.751818        -0.219795
 H        -2.125780         0.517812        -1.015602
 H        -2.539588        -0.853830         0.309371
 H        -3.478169         2.071012         0.955501
 H        -3.508959         0.888502         3.104970
 H        -2.055828         3.017165         2.951819
 H        -0.782208         1.891825         3.544426
 H        -0.747862         2.662721         0.600553
 H        -0.056013        -0.003236         2.853379
 H        -0.542497        -1.550640         2.054081
