19
Iteration:  4708
 O         0.583152         0.257742         0.203094
 C        -0.825298         0.344394         0.772576
 C        -2.150755         0.056733         0.053328
 C        -2.818365         1.225702         0.935662
 C        -2.555877         1.012368         2.631574
 C        -1.476025         2.028474         2.573476
 C        -1.354224         1.883738         1.056510
 O        -2.164068        -0.298069         2.844861
 C        -0.758439        -0.416607         2.074175
 H         0.849464        -0.585472         0.569139
 H        -2.267623         0.303127        -0.977096
 H        -2.668258        -0.979718         0.170274
 H        -3.691606         1.761184         0.570151
 H        -3.464646         1.219912         3.228705
 H        -1.819461         3.079017         2.737054
 H        -0.658920         1.780753         3.234640
 H        -0.958446         2.763445         0.595113
 H        -0.110118        -0.027448         2.746337
 H        -0.543424        -1.395257         1.752046
