19
Iteration:  1753
 O         0.428072         0.007983        -0.018138
 C        -0.764552         0.380442         0.796747
 C        -2.063412         0.192077         0.110068
 C        -2.577696         1.359885         0.971660
 C        -2.669380         1.005838         2.482634
 C        -1.640688         2.146507         2.814977
 C        -1.156822         1.898830         1.303370
 O        -2.195076        -0.374270         2.767664
 C        -0.813821        -0.550030         2.077383
 H         0.814155         0.767036        -0.482280
 H        -2.173967         0.474964        -0.908665
 H        -2.452561        -0.819836         0.116268
 H        -3.291937         2.026878         0.426358
 H        -3.606091         0.880235         3.014001
 H        -2.095454         3.149188         2.557302
 H        -0.956538         2.041299         3.718299
 H        -0.716942         2.625394         0.758196
 H        -0.196450        -0.027447         2.719238
 H        -0.713537        -1.583981         1.968830
