19
Iteration:  3837charge 0 multiplicity 1
 O         0.487007         0.122423         0.095604
 C        -0.773169         0.403511         0.792573
 C        -2.167315         0.053053         0.099835
 C        -2.710046         1.341221         1.031403
 C        -2.647699         0.974603         2.531836
 C        -1.633965         2.161452         2.658199
 C        -1.278217         1.828167         1.112916
 O        -2.060597        -0.344178         2.703109
 C        -0.748863        -0.413501         2.141829
 H         0.768457        -0.786733         0.370512
 H        -2.080164         0.594059        -0.862188
 H        -2.562087        -0.903785         0.225057
 H        -3.484625         1.985752         0.646987
 H        -3.611622         0.923571         3.155912
 H        -2.174715         3.131745         2.735022
 H        -0.876157         2.195146         3.475713
 H        -0.747779         2.641773         0.610427
 H        -0.081347         0.063300         2.910134
 H        -0.357495        -1.591935         2.082383
