19
Iteration:   753
 O         0.441355         0.357921         0.189516
 C        -0.817731         0.332177         0.841442
 C        -2.175285         0.238363         0.054619
 C        -2.617174         1.399405         0.966200
 C        -2.590330         1.058576         2.497947
 C        -1.410127         1.894761         2.757512
 C        -1.102784         1.813855         1.224727
 O        -2.304788        -0.398111         2.596166
 C        -0.888403        -0.593355         2.072965
 H         0.819084        -0.539608         0.328888
 H        -1.963502         0.641256        -0.956896
 H        -2.585735        -0.674319         0.318760
 H        -3.490204         2.052735         0.619695
 H        -3.420071         1.293938         3.085979
 H        -1.888295         2.913981         2.905281
 H        -0.727117         1.581001         3.575191
 H        -0.570288         2.573023         0.622050
 H        -0.130747        -0.425474         2.851307
 H        -0.909174        -1.606186         1.648620
