19
Iteration:  2327charge 0 multiplicity 1
 O         0.365720         0.014665         0.149102
 C        -0.729530         0.340797         0.877881
 C        -2.161358         0.241098         0.068077
 C        -2.610815         1.428310         0.918396
 C        -2.659613         1.020233         2.479231
 C        -1.546588         2.018551         2.698375
 C        -1.203886         1.807198         1.275501
 O        -2.103317        -0.394698         2.643591
 C        -0.779190        -0.422353         2.136998
 H         0.317489         0.733073        -0.490530
 H        -1.943660         0.654602        -0.977768
 H        -2.702927        -0.712307         0.243685
 H        -3.401816         2.102384         0.561907
 H        -3.576378         1.049099         3.089238
 H        -2.022706         3.023157         2.716548
 H        -0.908716         1.742990         3.510035
 H        -0.717039         2.635343         0.729437
 H        -0.196314         0.036738         2.906154
 H        -0.649140        -1.516572         2.133597
