19
Iteration:   723charge 0 multiplicity 1
 O         0.559666         0.287677         0.238552
 C        -0.792308         0.382464         0.811896
 C        -2.191532         0.236450         0.024455
 C        -2.559834         1.384605         0.975749
 C        -2.657299         1.006785         2.503754
 C        -1.420080         1.979156         2.813348
 C        -1.205569         1.837386         1.226050
 O        -2.227196        -0.334272         2.671044
 C        -0.953176        -0.645771         2.017640
 H         0.668141        -0.416072        -0.404776
 H        -2.126099         0.501346        -1.081650
 H        -2.699991        -0.784740         0.172601
 H        -3.370453         2.154028         0.645351
 H        -3.670212         1.266351         2.992723
 H        -1.788033         2.924153         3.062757
 H        -0.700175         1.513148         3.423336
 H        -0.942411         2.632102         0.547350
 H        -0.096480        -0.678855         2.667559
 H        -1.129356        -1.643828         1.513381
