19
Iteration:  3188charge 0 multiplicity 1
 O         0.513608         0.115965         0.267025
 C        -0.792846         0.374349         0.824306
 C        -2.110050         0.265828         0.041608
 C        -2.697748         1.377785         0.954746
 C        -2.634103         1.002183         2.517680
 C        -1.529799         2.000120         2.713735
 C        -1.214956         1.888846         1.160274
 O        -2.183965        -0.419969         2.684983
 C        -0.827349        -0.476303         2.091109
 H         0.489539        -0.304522        -0.598425
 H        -2.017720         0.652477        -0.942184
 H        -2.675211        -0.614163         0.018952
 H        -3.581519         1.920112         0.504448
 H        -3.494762         0.992421         3.229377
 H        -1.853720         3.040465         2.859084
 H        -0.716782         1.650214         3.402469
 H        -0.804159         2.780274         0.650246
 H        -0.109991        -0.092443         2.858881
 H        -0.723484        -1.470937         1.709933
