19
Iteration:  4214charge 0 multiplicity 1
 O         0.400661         0.241897        -0.012145
 C        -0.693744         0.254597         0.814233
 C        -2.101581         0.019381         0.132513
 C        -2.655594         1.188606         0.973160
 C        -2.700387         1.035206         2.522203
 C        -1.576203         2.098471         2.659308
 C        -1.211019         1.839780         1.197380
 O        -2.152623        -0.236353         2.840228
 C        -0.746679        -0.409607         2.182914
 H         0.159626         0.007449        -0.907116
 H        -1.986246         0.468606        -0.837146
 H        -2.509649        -1.080603         0.080629
 H        -3.474297         1.855955         0.621753
 H        -3.597161         0.886471         3.124039
 H        -1.976911         3.105828         2.423355
 H        -0.954074         2.192179         3.596388
 H        -0.746497         2.642783         0.512979
 H         0.108462        -0.122682         2.791135
 H        -0.665244        -1.473280         2.129787
