19
Iteration:  4787charge 0 multiplicity 1
 O         0.311196         0.069913        -0.005426
 C        -0.747161         0.354813         0.861610
 C        -2.089459         0.050219         0.183662
 C        -2.639309         1.276953         0.896135
 C        -2.720139         1.058524         2.474395
 C        -1.652663         2.093240         2.686520
 C        -1.188420         1.833564         1.263641
 O        -2.026451        -0.268477         2.750605
 C        -0.744462        -0.398585         2.105259
 H         1.157998         0.418763         0.321842
 H        -2.086805         0.304626        -0.919312
 H        -2.299922        -0.998356         0.417966
 H        -3.530829         1.851861         0.394431
 H        -3.775337         1.030437         3.007089
 H        -2.132605         3.113664         2.779490
 H        -1.094681         1.877757         3.625845
 H        -0.851162         2.693795         0.696047
 H         0.033182        -0.038310         2.747660
 H        -0.495688        -1.418842         1.905708
