19
Iteration:   960
 O         0.404791         0.086620         0.073611
 C        -0.838779         0.373139         0.846860
 C        -2.072068         0.255864         0.011035
 C        -2.642776         1.366799         0.952587
 C        -2.666625         1.011222         2.491005
 C        -1.507900         1.952281         2.797058
 C        -1.180409         1.852930         1.324350
 O        -2.135191        -0.308608         2.658282
 C        -0.885135        -0.536880         2.070872
 H         1.138073         0.684746         0.330485
 H        -1.902689         0.651888        -1.063127
 H        -2.645929        -0.696322         0.028438
 H        -3.396781         2.046127         0.623121
 H        -3.563765         1.079413         3.092148
 H        -2.002416         2.983742         3.016302
 H        -0.747015         1.526304         3.525801
 H        -0.713487         2.737509         0.733123
 H        -0.033682        -0.276169         2.801564
 H        -0.823841        -1.608958         1.831131
