19
Iteration:    17charge 0 multiplicity 1
 O         0.517636         0.171681         0.195168
 C        -0.790422         0.437986         0.748562
 C        -2.254686         0.203536        -0.069586
 C        -2.614217         1.396361         0.890672
 C        -2.642862         1.017881         2.590310
 C        -1.430005         1.910097         2.849403
 C        -1.183392         1.927531         1.250222
 O        -2.302145        -0.413907         2.727941
 C        -0.814891        -0.576159         2.001040
 H         1.120321         0.799135         0.636682
 H        -2.227566         0.455952        -1.172925
 H        -2.799087        -0.741941         0.107606
 H        -3.402799         2.172506         0.500633
 H        -3.572373         1.240317         3.189032
 H        -1.678141         2.905461         3.278607
 H        -0.642616         1.334856         3.373487
 H        -0.677384         2.733623         0.672071
 H         0.112115        -0.420267         2.620122
 H        -0.818384        -1.529165         1.456614
