19
Iteration:  2271charge 0 multiplicity 1
 O         0.436778         0.143486         0.269053
 C        -0.750174         0.377064         0.883877
 C        -2.168858         0.177689         0.109167
 C        -2.726312         1.382676         0.944138
 C        -2.614631         1.009726         2.446308
 C        -1.466189         2.037782         2.685972
 C        -1.185005         1.852492         1.129790
 O        -2.106685        -0.308726         2.743901
 C        -0.906377        -0.582270         2.039229
 H         0.653405         0.771891        -0.456395
 H        -2.069512         0.505842        -0.981819
 H        -2.548286        -0.837896        -0.108801
 H        -3.647829         1.816272         0.595586
 H        -3.521465         0.959782         3.078441
 H        -1.870911         3.015792         2.903416
 H        -0.818587         1.904806         3.524535
 H        -0.550436         2.535642         0.542923
 H        -0.041046        -0.555395         2.700402
 H        -0.952856        -1.648601         1.701336
