19
Iteration:  1164
 O         0.563608         0.098738         0.244822
 C        -0.797189         0.410161         0.768023
 C        -2.169275         0.310020        -0.030961
 C        -2.625300         1.345643         0.998936
 C        -2.586778         0.909882         2.511217
 C        -1.569472         2.100102         2.701174
 C        -1.191653         1.885629         1.262035
 O        -2.113099        -0.353140         2.796184
 C        -0.957895        -0.626495         2.037041
 H         0.482709         0.139661        -0.722199
 H        -2.150922         0.658035        -1.002543
 H        -2.779316        -0.621031        -0.121947
 H        -3.540763         1.961613         0.695378
 H        -3.467183         1.105310         3.093528
 H        -2.199410         2.976911         2.766198
 H        -0.858204         2.250346         3.498063
 H        -0.663024         2.488865         0.654737
 H         0.002427        -0.425203         2.532131
 H        -1.151778        -1.601805         1.553941
