19
Iteration:  4962charge 0 multiplicity 1
 O         0.377177         0.188238         0.029873
 C        -0.793268         0.355252         0.884146
 C        -2.148599         0.061521         0.085916
 C        -2.663738         1.249877         0.975353
 C        -2.589025         0.987583         2.463516
 C        -1.551809         2.107548         2.669789
 C        -1.206325         1.824016         1.172682
 O        -2.117413        -0.260324         2.798216
 C        -0.772059        -0.490654         2.163254
 H         1.105807         0.639339         0.505843
 H        -2.030989         0.358048        -1.014203
 H        -2.598808        -0.905941         0.180278
 H        -3.404446         1.808687         0.432714
 H        -3.652178         1.056587         2.968779
 H        -2.046974         3.087178         2.766403
 H        -0.754636         2.069643         3.412811
 H        -1.011633         2.531082         0.390258
 H        -0.067717        -0.245662         2.963849
 H        -0.894499        -1.502714         1.728001
