19
Iteration:   498
 O         0.446783         0.245089         0.106273
 C        -0.746305         0.424606         0.850934
 C        -2.115732         0.276280         0.145718
 C        -2.636497         1.399439         0.901730
 C        -2.650833         0.954881         2.398322
 C        -1.486593         1.873328         2.759121
 C        -1.109527         1.815874         1.262633
 O        -2.234740        -0.332214         2.693425
 C        -0.923531        -0.532180         2.123259
 H         0.349413        -0.548292        -0.461193
 H        -2.077486         0.242051        -1.017083
 H        -2.484361        -0.716240         0.556057
 H        -3.447490         2.005265         0.631334
 H        -3.617559         1.089932         2.805871
 H        -1.818941         2.956619         2.977125
 H        -0.700626         1.704163         3.584214
 H        -0.459777         2.651272         0.860885
 H        -0.183267        -0.136979         2.791747
 H        -0.823451        -1.508041         1.733989
