19
Iteration:   757
 O         0.422713         0.342554         0.175141
 C        -0.805631         0.297547         0.857236
 C        -2.160031         0.265012         0.041922
 C        -2.608502         1.399363         0.982902
 C        -2.583298         1.043224         2.465102
 C        -1.412540         1.909948         2.765567
 C        -1.146396         1.829323         1.211953
 O        -2.282042        -0.389524         2.584241
 C        -0.876821        -0.587527         2.095395
 H         0.722309        -0.562616         0.413785
 H        -1.860580         0.716446        -0.928020
 H        -2.753515        -0.727279         0.207541
 H        -3.383438         2.176035         0.603987
 H        -3.530996         1.117713         3.178595
 H        -1.784479         2.870225         3.016749
 H        -0.731499         1.721656         3.566721
 H        -0.649116         2.599008         0.640270
 H        -0.203758        -0.481756         2.929293
 H        -0.858772        -1.667682         1.731849
