19
Iteration:  3518
 O         0.416649         0.158757         0.247929
 C        -0.770342         0.331134         0.884272
 C        -2.158654         0.224927        -0.029995
 C        -2.722230         1.293304         0.950069
 C        -2.600295         0.931689         2.463941
 C        -1.513538         2.006205         2.579257
 C        -1.202959         1.904034         1.134705
 O        -2.137805        -0.372892         2.791439
 C        -0.789786        -0.395574         2.227341
 H         0.339847         0.012951        -0.703929
 H        -2.034281         0.438980        -1.102104
 H        -2.598747        -0.817548        -0.134477
 H        -3.574301         1.967075         0.860280
 H        -3.512865         1.130918         2.959515
 H        -1.826467         2.971639         2.838122
 H        -0.717232         1.921685         3.268206
 H        -0.714847         2.595056         0.477683
 H        -0.010691        -0.041087         2.937893
 H        -0.616322        -1.418743         2.023428
