19
Iteration:  4828charge 0 multiplicity 1
 O         0.417264         0.131095         0.149249
 C        -0.805835         0.365062         0.781042
 C        -2.123558         0.154016         0.113058
 C        -2.725361         1.248144         1.010465
 C        -2.603312         0.995292         2.517681
 C        -1.510094         2.133821         2.579038
 C        -1.264521         1.821983         1.076402
 O        -2.118361        -0.404156         2.771009
 C        -0.799551        -0.434161         2.194446
 H         1.022990         0.840466         0.486769
 H        -2.209102         0.572956        -0.885498
 H        -2.658911        -0.844881         0.040102
 H        -3.469399         1.847996         0.551433
 H        -3.454459         1.083874         3.223606
 H        -1.939104         3.147106         2.526692
 H        -0.684780         2.027405         3.236775
 H        -0.770935         2.536203         0.432063
 H        -0.092726         0.201799         2.811278
 H        -0.440975        -1.578855         2.146829
