19
Iteration:  4421
 O         0.469833         0.300214         0.145682
 C        -0.782284         0.342782         0.775391
 C        -2.140698         0.016054         0.115781
 C        -2.700904         1.204406         1.005969
 C        -2.688986         1.049136         2.526896
 C        -1.532126         2.201454         2.578230
 C        -1.258970         1.771311         1.114816
 O        -2.073371        -0.239939         2.877426
 C        -0.811961        -0.570026         2.067633
 H         0.636820        -0.530102        -0.367215
 H        -2.238625         0.345969        -0.901049
 H        -2.406488        -1.078309         0.185239
 H        -3.533922         1.785912         0.582125
 H        -3.594334         1.016684         3.141705
 H        -1.987496         3.206197         2.555335
 H        -0.861386         2.285934         3.494546
 H        -0.687061         2.626329         0.632987
 H         0.074895        -0.292994         2.759358
 H        -0.651101        -1.616805         1.896083
