19
Iteration:   864
 O         0.510402         0.405548         0.194219
 C        -0.820910         0.356103         0.811637
 C        -2.174161         0.232916         0.039722
 C        -2.605127         1.378938         0.956919
 C        -2.600962         1.038817         2.489021
 C        -1.304731         1.965238         2.775838
 C        -1.114659         1.827275         1.241627
 O        -2.352006        -0.487669         2.670389
 C        -0.993477        -0.603505         2.070015
 H         0.670425        -0.477851        -0.176902
 H        -2.232721         0.488371        -1.063449
 H        -2.461919        -0.796644        -0.086075
 H        -3.550911         2.009385         0.553051
 H        -3.489371         1.226524         3.166032
 H        -1.736420         3.006196         2.886715
 H        -0.531395         1.604976         3.495260
 H        -0.694399         2.598833         0.618290
 H        -0.303318        -0.095704         2.838070
 H        -0.737221        -1.707803         1.880093
