19
Iteration:   345
 O         0.451210         0.107342         0.151481
 C        -0.795682         0.382716         0.853361
 C        -2.031832         0.292359         0.084970
 C        -2.771623         1.446723         0.912738
 C        -2.721742         0.992247         2.483194
 C        -1.435314         1.928329         2.738650
 C        -1.147759         1.819573         1.286000
 O        -2.163304        -0.321791         2.703457
 C        -0.929852        -0.587567         2.022745
 H         0.872400         0.953808         0.296077
 H        -1.887398         0.636332        -0.949474
 H        -2.452742        -0.772923        -0.040749
 H        -3.608841         2.156673         0.576886
 H        -3.651749         1.003001         3.028632
 H        -1.775334         2.938160         2.954908
 H        -0.796737         1.484729         3.439867
 H        -0.487295         2.629874         0.817507
 H         0.074020        -0.397520         2.513110
 H        -0.790450        -1.611930         1.665003
