19
Iteration:  4304charge 0 multiplicity 1
 O         0.374404         0.173710         0.163608
 C        -0.795233         0.354979         0.880291
 C        -2.114220         0.122747         0.081760
 C        -2.758880         1.185517         0.917479
 C        -2.560883         0.957558         2.494214
 C        -1.506357         2.124045         2.535455
 C        -1.288094         1.861009         1.079174
 O        -2.013942        -0.295519         2.913456
 C        -0.887547        -0.497489         2.119725
 H         0.722317         1.091048         0.128602
 H        -1.969385         0.424331        -0.949286
 H        -2.448825        -0.949757         0.044076
 H        -3.599671         1.808138         0.668526
 H        -3.409625         1.347502         3.042915
 H        -1.837975         3.142549         2.738042
 H        -0.739670         1.969897         3.278749
 H        -0.797345         2.525754         0.379775
 H        -0.049286        -0.247444         2.815042
 H        -0.603960        -1.584115         1.889218
