19
Iteration:  1617charge 0 multiplicity 1
 O         0.412257        -0.018339         0.055882
 C        -0.732644         0.331340         0.875477
 C        -2.149075         0.257405         0.016569
 C        -2.710076         1.346295         0.947965
 C        -2.623157         0.952999         2.452934
 C        -1.602105         2.083582         2.829697
 C        -1.139826         1.834373         1.276528
 O        -2.137456        -0.331751         2.604455
 C        -0.764063        -0.414344         2.277219
 H         0.495053         0.628735        -0.678071
 H        -2.115764         0.603480        -1.074080
 H        -2.716495        -0.709181         0.002726
 H        -3.328602         2.194799         0.596701
 H        -3.599465         1.019206         3.070380
 H        -2.230060         2.922644         2.635816
 H        -0.858025         1.893315         3.589123
 H        -0.629637         2.685004         0.744064
 H        -0.100150         0.066850         2.913345
 H        -0.557801        -1.528967         2.078703
