19
Iteration:  1061charge 0 multiplicity 1
 O         0.381013        -0.014240         0.069503
 C        -0.723647         0.326599         0.863210
 C        -2.054516         0.281300         0.026511
 C        -2.605468         1.359537         0.924632
 C        -2.677253         0.976713         2.496995
 C        -1.657782         2.118717         2.784578
 C        -1.231051         1.906684         1.294205
 O        -2.083986        -0.377008         2.739284
 C        -0.838778        -0.517746         2.066134
 H         0.503739         0.674518        -0.587137
 H        -1.786705         0.835905        -0.929986
 H        -2.456928        -0.710533        -0.031150
 H        -3.322946         2.185343         0.681157
 H        -3.700120         0.989918         2.975762
 H        -1.982059         3.213515         3.053804
 H        -0.873839         1.795130         3.558257
 H        -0.751981         2.749712         0.795069
 H        -0.035456        -0.420659         2.785994
 H        -0.782535        -1.600447         1.843547
