19
Iteration:   805charge 0 multiplicity 1
 O         0.450449         0.040990         0.078935
 C        -0.753333         0.398407         0.789877
 C        -2.134031         0.353990        -0.052608
 C        -2.508917         1.416764         0.999410
 C        -2.695539         0.889847         2.510760
 C        -1.633462         1.981028         2.826610
 C        -1.120494         1.892779         1.348946
 O        -2.124731        -0.334384         2.703633
 C        -0.950720        -0.477465         1.983100
 H         0.646960        -0.860251         0.358646
 H        -2.005794         0.908147        -0.980348
 H        -2.466386        -0.657971         0.033158
 H        -3.239048         2.068218         0.808860
 H        -3.648091         0.877582         2.967928
 H        -2.105151         3.002481         3.123560
 H        -0.934298         1.872335         3.727737
 H        -0.849646         2.805917         0.743751
 H         0.016890        -0.391238         2.670683
 H        -0.964342        -1.508369         1.705362
