19
Iteration:  3434charge 0 multiplicity 1
 O         0.391953         0.122038         0.106232
 C        -0.794954         0.353667         0.824458
 C        -2.133151         0.210303         0.046109
 C        -2.712810         1.264554         0.928337
 C        -2.608059         1.009645         2.488342
 C        -1.516299         2.021491         2.734154
 C        -1.180003         1.795252         1.200514
 O        -2.146719        -0.338271         2.723368
 C        -0.861024        -0.421973         2.182479
 H         1.144885         0.707111         0.328819
 H        -1.950080         0.689295        -0.935507
 H        -2.496282        -0.798206         0.052005
 H        -3.377633         2.005011         0.504015
 H        -3.637058         0.974570         2.975508
 H        -1.833972         3.103207         2.650381
 H        -0.709994         1.828638         3.522456
 H        -0.693794         2.611196         0.536593
 H         0.015557        -0.005337         2.826595
 H        -0.616146        -1.573178         1.972185
