19
Iteration:  4853charge 0 multiplicity 1
 O         0.479264         0.202136         0.172926
 C        -0.809234         0.381831         0.788351
 C        -2.145922        -0.018769         0.070296
 C        -2.698707         1.223294         0.973517
 C        -2.562098         1.076672         2.506687
 C        -1.558242         2.144578         2.656852
 C        -1.322181         1.858052         1.139710
 O        -2.029117        -0.239018         2.849756
 C        -0.884725        -0.588945         2.029484
 H         1.169205         0.662341         0.713088
 H        -2.257349         0.290720        -1.038376
 H        -2.668336        -0.962414         0.163960
 H        -3.485025         1.882330         0.408531
 H        -3.490443         1.112170         3.243271
 H        -1.988801         3.174617         2.706450
 H        -0.736771         1.917862         3.360783
 H        -0.916532         2.619025         0.463305
 H         0.044589        -0.557135         2.645112
 H        -0.994684        -1.582474         1.555923
