19
Iteration:  2556charge 0 multiplicity 1
 O         0.432783         0.113651         0.278630
 C        -0.848038         0.361942         0.834816
 C        -2.159845         0.242944         0.000678
 C        -2.711400         1.412402         0.904409
 C        -2.614761         0.991654         2.493774
 C        -1.438700         2.014970         2.671712
 C        -1.218167         1.882901         1.215357
 O        -2.156962        -0.414831         2.680269
 C        -0.777579        -0.491803         2.152087
 H         0.349620         0.291840        -0.663563
 H        -1.886600         0.390755        -1.023871
 H        -2.532996        -0.747370         0.081089
 H        -3.552668         2.076908         0.837915
 H        -3.491171         0.988821         3.126966
 H        -1.820217         3.001981         2.932214
 H        -0.688128         1.735910         3.349718
 H        -0.672348         2.598319         0.567557
 H        -0.096489        -0.007815         2.796304
 H        -0.699595        -1.608204         1.944005
