19
Iteration:   318charge 0 multiplicity 1
 O         0.529653         0.090642         0.300554
 C        -0.791464         0.349613         0.733102
 C        -2.149518         0.314255        -0.032872
 C        -2.565569         1.315360         1.025544
 C        -2.581264         0.950144         2.541367
 C        -1.484585         2.130265         2.797259
 C        -1.176352         1.926525         1.163701
 O        -2.206724        -0.408039         2.749784
 C        -1.004882        -0.615389         1.918068
 H         0.784685         1.007136         0.371441
 H        -2.247333         0.763730        -1.055814
 H        -2.706485        -0.682854        -0.136106
 H        -3.370979         1.996668         0.865477
 H        -3.638280         1.060553         2.954390
 H        -2.070776         3.012313         3.154200
 H        -0.671248         1.848848         3.626195
 H        -1.008013         2.668097         0.420082
 H         0.022557        -0.594455         2.429507
 H        -1.109501        -1.574332         1.376827
