19
Iteration:  2562
 O         0.431864         0.092004         0.232803
 C        -0.826059         0.337594         0.827503
 C        -2.130637         0.207714         0.049248
 C        -2.691930         1.401461         0.951410
 C        -2.602144         0.945552         2.421924
 C        -1.523409         2.012167         2.702454
 C        -1.183669         1.859746         1.236590
 O        -2.129410        -0.362236         2.677886
 C        -0.847644        -0.456922         2.135172
 H         0.296650         0.395937        -0.689113
 H        -1.821681         0.626773        -0.977434
 H        -2.767062        -0.747508         0.002600
 H        -3.494845         2.182103         0.797813
 H        -3.412564         1.092284         3.198374
 H        -1.841723         3.060933         2.879843
 H        -0.626098         1.704566         3.373703
 H        -0.741051         2.678403         0.657813
 H        -0.068037         0.007380         2.846920
 H        -0.596010        -1.487633         2.009760
