19
Iteration:  2012charge 0 multiplicity 1
 O         0.413220         0.029981         0.213527
 C        -0.802855         0.350834         0.808957
 C        -2.117659         0.261703         0.002948
 C        -2.630181         1.372753         0.975854
 C        -2.628684         1.006955         2.504164
 C        -1.569323         2.144259         2.766282
 C        -1.219592         1.846599         1.210641
 O        -2.118158        -0.386742         2.708475
 C        -0.804275        -0.525260         2.084691
 H         0.739388         0.507269        -0.556485
 H        -2.109240         0.664888        -1.020190
 H        -2.657232        -0.686490        -0.050271
 H        -3.496995         1.990168         0.679929
 H        -3.517413         0.996672         3.122950
 H        -2.193141         2.958058         3.069455
 H        -0.830398         1.869713         3.563263
 H        -0.738970         2.516943         0.428269
 H         0.142895        -0.198977         2.702502
 H        -0.686293        -1.525229         1.632903
