19
Iteration:  1175charge 0 multiplicity 1
 O         0.438952         0.041582         0.256965
 C        -0.781476         0.331952         0.834481
 C        -2.153017         0.301459        -0.051766
 C        -2.609986         1.381578         0.950737
 C        -2.639377         0.958008         2.501960
 C        -1.594891         2.092322         2.792316
 C        -1.205567         1.944713         1.220888
 O        -2.055677        -0.337582         2.720946
 C        -0.846788        -0.587357         2.027661
 H         0.316150         0.042955        -0.688477
 H        -2.109530         0.755970        -0.973663
 H        -2.594266        -0.720205        -0.038959
 H        -3.344833         2.231896         0.747292
 H        -3.595118         0.857627         3.012206
 H        -2.242482         2.954003         2.862089
 H        -0.911610         1.971876         3.623204
 H        -0.842431         2.685507         0.611008
 H         0.057502        -0.552028         2.668308
 H        -0.783523        -1.680004         1.782481
