19
Iteration:  3502
 O         0.554583         0.199031         0.253578
 C        -0.852638         0.350932         0.750702
 C        -2.184521         0.177674         0.005416
 C        -2.667206         1.281240         0.916136
 C        -2.639015         0.991718         2.520933
 C        -1.520271         2.105310         2.695443
 C        -1.261954         1.763337         1.162465
 O        -2.081272        -0.310205         2.804038
 C        -0.847779        -0.491713         2.102609
 H         0.398624        -0.456873        -0.463819
 H        -2.117287         0.692301        -0.965477
 H        -2.764430        -0.729612         0.004560
 H        -3.473725         1.914800         0.458886
 H        -3.633178         1.079237         3.078764
 H        -2.028511         3.135895         2.852906
 H        -0.775640         1.957376         3.562990
 H        -0.752569         2.528379         0.513881
 H        -0.061010         0.058546         2.736664
 H        -0.576157        -1.656634         2.021562
