19
Iteration:  2528
 O         0.555173         0.222169         0.347402
 C        -0.824004         0.390466         0.810269
 C        -2.186330         0.164801         0.093837
 C        -2.665756         1.307080         1.002218
 C        -2.555681         1.000857         2.490148
 C        -1.411171         2.025369         2.602407
 C        -1.230823         1.891481         1.165840
 O        -2.194364        -0.355645         2.728722
 C        -0.988278        -0.555946         1.981137
 H         0.568303         0.352646        -0.615145
 H        -1.968141         0.421689        -1.003697
 H        -2.526279        -0.940308         0.026029
 H        -3.554978         1.975749         0.892825
 H        -3.380812         1.057990         3.223170
 H        -1.822492         2.997868         2.958399
 H        -0.536462         1.783958         3.326201
 H        -0.898590         2.678756         0.489706
 H        -0.092087        -0.404521         2.661811
 H        -1.113310        -1.589885         1.641317
