19
Iteration:  2841charge 0 multiplicity 1
 O         0.373648         0.047976         0.111085
 C        -0.754206         0.406520         0.806810
 C        -2.071594         0.255237        -0.011961
 C        -2.612822         1.328005         0.981266
 C        -2.671531         0.957250         2.493295
 C        -1.591668         2.050395         2.820584
 C        -1.160165         1.871398         1.224139
 O        -2.124783        -0.330153         2.767555
 C        -0.870957        -0.542990         2.073924
 H         0.647525         0.722917        -0.549847
 H        -1.985959         0.813803        -0.902382
 H        -2.461082        -0.735319         0.038352
 H        -3.312896         2.100166         0.618709
 H        -3.601140         0.995210         3.071942
 H        -2.051292         3.052779         2.908423
 H        -0.864116         1.758236         3.570990
 H        -0.630282         2.589562         0.523462
 H        -0.032786        -0.244888         2.700316
 H        -0.794270        -1.570113         1.869303
