19
Iteration:   846
 O         0.405228         0.349023         0.181069
 C        -0.812853         0.344109         0.838819
 C        -2.110774         0.282731         0.029557
 C        -2.566145         1.383885         1.017266
 C        -2.624350         0.915069         2.520229
 C        -1.433235         2.001387         2.706373
 C        -1.126026         1.805479         1.252281
 O        -2.248759        -0.376187         2.622461
 C        -0.956039        -0.605355         2.088484
 H         0.916377        -0.470068         0.160775
 H        -1.862357         0.649506        -0.951158
 H        -2.877424        -0.586062         0.082413
 H        -3.285567         2.166626         0.734984
 H        -3.627025         1.100613         3.028894
 H        -1.826020         2.948823         2.918860
 H        -0.619183         1.710038         3.332159
 H        -0.487871         2.407681         0.600978
 H        -0.185624        -0.537974         2.785583
 H        -0.998526        -1.589271         1.574066
