19
Iteration:  1943
 O         0.486547         0.189810         0.256364
 C        -0.788722         0.326359         0.838362
 C        -2.186206         0.220537         0.055740
 C        -2.697332         1.359641         0.954985
 C        -2.585261         0.981424         2.522172
 C        -1.491384         1.993444         2.732850
 C        -1.141574         1.866109         1.126316
 O        -2.206419        -0.375099         2.720309
 C        -0.872896        -0.538107         2.031421
 H         0.594225         0.736678        -0.554382
 H        -2.205563         0.444935        -1.001914
 H        -2.593524        -0.768895         0.164334
 H        -3.462508         2.005357         0.642576
 H        -3.471983         1.178506         3.065342
 H        -1.914598         3.065933         2.875601
 H        -0.660802         1.864111         3.438701
 H        -0.593180         2.609233         0.527351
 H        -0.089642        -0.234900         2.849976
 H        -0.822330        -1.569408         1.789531
