19
Iteration:  1804
 O         0.458257         0.164920         0.271598
 C        -0.823582         0.376663         0.829310
 C        -2.162294         0.216792        -0.013853
 C        -2.648974         1.356434         0.919893
 C        -2.645991         0.995541         2.499508
 C        -1.433029         1.998100         2.730163
 C        -1.229805         1.862321         1.202374
 O        -2.139808        -0.365942         2.734570
 C        -0.877855        -0.468465         2.088856
 H         0.414301         0.130667        -0.722191
 H        -2.056373         0.309323        -1.154260
 H        -2.646883        -0.751568         0.133936
 H        -3.474757         2.049892         0.735718
 H        -3.490545         0.970503         3.142388
 H        -1.736143         2.938322         3.003474
 H        -0.609967         1.630483         3.311039
 H        -0.728560         2.545205         0.376579
 H        -0.057704        -0.201338         2.830746
 H        -0.748593        -1.565205         1.738172
