19
Iteration:  1331
 O         0.423209         0.121311         0.127058
 C        -0.762374         0.341680         0.902433
 C        -2.175681         0.178199         0.113413
 C        -2.588077         1.411730         0.898898
 C        -2.596136         0.993629         2.436743
 C        -1.639883         2.034745         2.754855
 C        -1.097614         1.889880         1.249236
 O        -2.153342        -0.355528         2.644917
 C        -0.814707        -0.503444         2.132365
 H         0.112314         0.255218        -0.781094
 H        -2.265075         0.307040        -0.914187
 H        -2.732616        -0.687913         0.319897
 H        -3.340152         2.085911         0.604929
 H        -3.500542         0.932554         3.038749
 H        -2.119649         3.001513         2.957449
 H        -0.908500         1.913430         3.535599
 H        -0.674199         2.596061         0.657994
 H        -0.089065        -0.323579         2.973548
 H        -0.598923        -1.604658         1.959274
