19
Iteration:  4197charge 0 multiplicity 1
 O         0.489954         0.211865         0.088071
 C        -0.796714         0.325735         0.827761
 C        -2.138141         0.067729         0.081148
 C        -2.709632         1.217325         0.983031
 C        -2.650022         1.039434         2.558575
 C        -1.601714         2.144775         2.658086
 C        -1.266852         1.742009         1.144907
 O        -2.014672        -0.265075         2.800095
 C        -0.814508        -0.399580         2.128044
 H         0.377096        -0.204740        -0.770200
 H        -2.273456         0.379199        -0.997429
 H        -2.470457        -0.906949         0.319150
 H        -3.471573         1.839878         0.526377
 H        -3.594544         1.206366         3.117922
 H        -2.081272         3.131723         2.775954
 H        -0.774522         1.929277         3.340322
 H        -0.829262         2.389117         0.397377
 H        -0.031000        -0.130024         2.951666
 H        -0.616160        -1.541111         2.114459
