19
Iteration:  4631
 O         0.468733         0.151229         0.064882
 C        -0.764478         0.349660         0.761079
 C        -2.098250         0.046624         0.103521
 C        -2.687288         1.204702         0.992471
 C        -2.698588         0.975182         2.455854
 C        -1.643822         2.101377         2.732509
 C        -1.172702         1.888820         1.141210
 O        -2.117829        -0.251729         2.857288
 C        -0.728221        -0.386726         2.138646
 H         0.248568        -0.359409        -0.739222
 H        -2.169677         0.359327        -0.892316
 H        -2.627032        -0.953665         0.143314
 H        -3.557072         1.764211         0.688042
 H        -3.635852         1.133033         2.975475
 H        -2.169514         3.069626         2.903133
 H        -0.879684         2.168557         3.482568
 H        -0.683064         2.645441         0.531595
 H         0.111805        -0.044225         2.761581
 H        -0.624658        -1.442534         2.052085
