19
Iteration:   880
 O         0.543172         0.288521         0.235486
 C        -0.767439         0.385318         0.812218
 C        -2.129410         0.222830         0.040114
 C        -2.668210         1.399237         0.973599
 C        -2.612596         0.967671         2.571431
 C        -1.410315         1.885129         2.727068
 C        -1.198776         1.841594         1.192861
 O        -2.271471        -0.345844         2.600612
 C        -0.946968        -0.533959         2.081906
 H         0.518042        -0.278023        -0.580540
 H        -2.139152         0.569853        -0.985270
 H        -2.793879        -0.709823         0.158746
 H        -3.410091         2.118522         0.672750
 H        -3.514569         1.105530         3.190712
 H        -1.632944         2.823245         3.177098
 H        -0.612423         1.529315         3.368693
 H        -0.606329         2.694913         0.752141
 H        -0.218178        -0.471074         2.843931
 H        -1.030072        -1.586602         1.793579
