19
Iteration:    62
 O         0.473911         0.196570         0.222986
 C        -0.793427         0.335060         0.868773
 C        -2.131842         0.304161        -0.030386
 C        -2.654804         1.443170         0.932007
 C        -2.585721         0.956415         2.566163
 C        -1.420220         2.149909         2.797150
 C        -1.198213         1.871368         1.319556
 O        -2.233115        -0.482350         2.633582
 C        -0.922448        -0.723714         2.000260
 H         0.330114         0.495786        -0.682091
 H        -1.760857         0.719577        -1.073102
 H        -2.663567        -0.607419        -0.249342
 H        -3.412736         2.210761         0.646341
 H        -3.478594         1.048085         3.174275
 H        -2.015894         3.126056         2.889920
 H        -0.624667         1.966056         3.551212
 H        -0.635148         2.645720         0.711411
 H        -0.196903        -0.412018         2.808598
 H        -0.812963        -1.778804         1.642320
