19
Iteration:  1682charge 0 multiplicity 1
 O         0.510307         0.211023         0.329707
 C        -0.743985         0.406241         0.766263
 C        -2.117142         0.199385         0.080325
 C        -2.713173         1.292369         1.037339
 C        -2.604729         1.037213         2.542895
 C        -1.392664         2.069539         2.637421
 C        -1.237340         1.815287         1.145523
 O        -2.200075        -0.358882         2.733864
 C        -0.945260        -0.619415         1.993306
 H         0.597223         0.540523        -0.593354
 H        -2.207163         0.487822        -1.034506
 H        -2.527228        -0.850451        -0.056003
 H        -3.442278         1.972036         0.552583
 H        -3.541060         1.214751         3.200920
 H        -1.996669         2.959892         2.964057
 H        -0.525425         1.977290         3.288249
 H        -1.025338         2.705011         0.393584
 H        -0.036486        -0.407842         2.734339
 H        -1.101548        -1.756893         1.668230
