19
Iteration:  4245
 O         0.350205         0.140889         0.146797
 C        -0.743262         0.369636         0.912759
 C        -2.172814         0.030023         0.163359
 C        -2.666862         1.308043         0.887730
 C        -2.649000         0.980935         2.458490
 C        -1.585700         2.080352         2.610551
 C        -1.274293         1.958565         1.144468
 O        -2.015419        -0.333617         2.771153
 C        -0.694449        -0.430445         2.159051
 H         0.151297        -0.047531        -0.799929
 H        -2.087210         0.155453        -0.956124
 H        -2.586272        -0.997371         0.447466
 H        -3.442104         2.077834         0.625045
 H        -3.565990         0.909273         3.097531
 H        -2.023351         3.131181         2.577326
 H        -0.779919         1.962031         3.469621
 H        -0.879740         2.860167         0.506527
 H         0.029986        -0.173095         2.908355
 H        -0.630084        -1.473366         1.964919
