19
Iteration:  4431charge 0 multiplicity 1
 O         0.451972         0.372485         0.154447
 C        -0.774801         0.292761         0.848772
 C        -2.113062        -0.012054         0.109663
 C        -2.763525         1.187337         0.919617
 C        -2.591892         1.082075         2.565753
 C        -1.595035         2.261671         2.567900
 C        -1.211750         1.814391         1.141407
 O        -2.100658        -0.280591         2.890726
 C        -0.741061        -0.632017         2.058390
 H         0.431331        -0.388953        -0.480798
 H        -2.227012         0.403390        -0.855144
 H        -2.688887        -0.930416         0.303739
 H        -3.523887         1.806630         0.374229
 H        -3.562275         1.136843         3.086603
 H        -2.020916         3.224068         2.743591
 H        -0.628486         2.010654         3.061050
 H        -0.719738         2.390903         0.270876
 H         0.025283        -0.506349         2.926369
 H        -1.104590        -1.650192         1.879186
