19
Iteration:  3373
 O         0.415385         0.242022         0.215344
 C        -0.747016         0.372666         0.866861
 C        -2.074413         0.226433         0.104964
 C        -2.620675         1.311573         0.940197
 C        -2.609826         0.989996         2.518074
 C        -1.584567         2.128340         2.656448
 C        -1.180430         1.829061         1.158855
 O        -2.136892        -0.348831         2.750453
 C        -0.889521        -0.634589         2.075888
 H         0.210633        -0.230560        -0.605673
 H        -1.994218         0.551811        -0.964109
 H        -2.363125        -0.926636        -0.048430
 H        -3.451877         1.983753         0.585157
 H        -3.554650         1.192161         3.075411
 H        -2.150214         3.072362         2.817620
 H        -0.819209         1.820771         3.425125
 H        -0.689661         2.646568         0.635031
 H         0.031339        -0.555517         2.590091
 H        -1.091314        -1.636592         1.751213
