19
Iteration:  1664charge 0 multiplicity 1
 O         0.512994         0.111314         0.207835
 C        -0.798836         0.385471         0.865176
 C        -2.122238         0.189207         0.062693
 C        -2.652414         1.336964         0.887630
 C        -2.645939         0.986021         2.545971
 C        -1.533878         2.112279         2.727883
 C        -1.252224         1.911298         1.223060
 O        -2.102990        -0.315374         2.731442
 C        -0.903516        -0.599581         2.048021
 H         0.415441         0.402982        -0.733080
 H        -1.977235         0.499711        -0.971148
 H        -2.554391        -0.786488        -0.027946
 H        -3.619491         1.862803         0.797230
 H        -3.548957         1.093958         3.069832
 H        -1.779038         3.148639         2.820690
 H        -0.802661         1.614113         3.394488
 H        -0.642119         2.493219         0.667427
 H        -0.114129        -0.542627         2.687589
 H        -0.923073        -1.494409         1.510838
