19
Iteration:  3894charge 0 multiplicity 1
 O         0.447612         0.376235         0.195546
 C        -0.799041         0.365175         0.892387
 C        -2.168538         0.054878         0.120686
 C        -2.675624         1.239971         0.927949
 C        -2.583372         0.986550         2.438153
 C        -1.522751         2.185180         2.569098
 C        -1.283101         1.795098         1.132734
 O        -2.061588        -0.267444         2.866130
 C        -0.840065        -0.631381         2.104805
 H         0.538053        -0.332180        -0.461657
 H        -2.067926         0.213227        -0.971509
 H        -2.764270        -0.828579         0.079613
 H        -3.474462         1.779715         0.477295
 H        -3.446241         1.233588         3.080252
 H        -2.097314         3.039693         2.782326
 H        -0.708777         1.938730         3.223346
 H        -0.695893         2.464234         0.429834
 H        -0.063979        -0.455300         2.825330
 H        -0.819782        -1.840321         1.889023
