19
Iteration:  3910charge 0 multiplicity 1
 O         0.511718         0.295743         0.155546
 C        -0.811655         0.279058         0.822977
 C        -2.151227         0.063295         0.080488
 C        -2.693453         1.225257         0.973125
 C        -2.657260         1.040142         2.573994
 C        -1.600991         2.176959         2.630488
 C        -1.189221         1.807521         1.124241
 O        -2.062822        -0.280742         2.797861
 C        -0.838039        -0.502468         2.091883
 H         0.694874        -0.537137        -0.349026
 H        -2.181861         0.475654        -0.943603
 H        -2.486788        -1.045401         0.344014
 H        -3.617836         1.850423         0.736142
 H        -3.560794         0.965246         3.208227
 H        -2.108273         3.171752         2.350262
 H        -0.859887         2.211203         3.499880
 H        -0.847016         2.585222         0.448873
 H         0.117791        -0.549091         2.706242
 H        -0.922363        -1.549934         1.744183
