19
Iteration:  4702
 O         0.575151         0.263298         0.183090
 C        -0.785124         0.382396         0.765877
 C        -2.218158         0.019980         0.104030
 C        -2.761883         1.290367         0.919250
 C        -2.592368         1.001962         2.659622
 C        -1.489278         2.038881         2.567706
 C        -1.313620         1.849307         1.054494
 O        -2.175397        -0.325455         2.836707
 C        -0.782293        -0.387263         2.071406
 H         0.948568        -0.631634         0.371357
 H        -2.223777         0.209903        -1.022125
 H        -2.452574        -1.028573         0.134679
 H        -3.749854         1.702545         0.480015
 H        -3.512836         1.113165         3.312938
 H        -1.900316         3.034432         2.777736
 H        -0.747901         1.973137         3.427535
 H        -0.852182         2.696585         0.472440
 H         0.101850        -0.028737         2.812491
 H        -0.592601        -1.499637         1.769013
