19
Iteration:  2488
 O         0.428838         0.104288         0.153170
 C        -0.842952         0.334441         0.853350
 C        -2.116796         0.234751        -0.028412
 C        -2.615802         1.385902         0.974010
 C        -2.622054         0.944132         2.484544
 C        -1.566446         2.050605         2.692240
 C        -1.190221         1.844748         1.207513
 O        -2.088796        -0.302631         2.813854
 C        -0.873582        -0.593088         2.103776
 H         0.591826         0.979150        -0.249691
 H        -1.821900         0.539816        -1.018892
 H        -2.679155        -0.675361         0.011085
 H        -3.447421         2.088834         0.758430
 H        -3.702821         1.190879         2.741926
 H        -2.086607         3.002176         2.815206
 H        -0.803147         1.874684         3.500137
 H        -0.574869         2.565524         0.620604
 H        -0.013944        -0.274873         2.714948
 H        -0.864580        -1.657745         1.756546
