19
Iteration:   807
 O         0.462707         0.045829         0.077980
 C        -0.770431         0.375550         0.798512
 C        -2.135408         0.367150        -0.040530
 C        -2.506443         1.408958         1.004681
 C        -2.715925         0.900003         2.501668
 C        -1.631071         1.999831         2.826883
 C        -1.122323         1.892257         1.358930
 O        -2.125658        -0.337052         2.707027
 C        -0.933216        -0.472844         1.964861
 H         0.647344        -0.882374         0.378803
 H        -2.033795         0.816006        -1.097386
 H        -2.439278        -0.625293         0.028048
 H        -3.347942         2.061804         0.796051
 H        -3.645072         0.814682         2.952941
 H        -2.051453         3.036752         3.173580
 H        -0.893054         1.875460         3.685668
 H        -0.796214         2.775503         0.761513
 H         0.016500        -0.449487         2.663184
 H        -0.967470        -1.525994         1.672032
