19
Iteration:  1902charge 0 multiplicity 1
 O         0.390664        -0.076840         0.058020
 C        -0.767141         0.368904         0.804625
 C        -2.061613         0.230571         0.067193
 C        -2.670513         1.367620         0.925888
 C        -2.662124         1.021425         2.524011
 C        -1.605102         2.036499         2.849630
 C        -1.180923         1.873937         1.294828
 O        -2.170883        -0.308720         2.630780
 C        -0.730174        -0.452160         2.097442
 H         0.536943         0.660526        -0.584435
 H        -1.863179         0.668401        -0.946615
 H        -2.566798        -0.724649         0.000331
 H        -3.507960         1.912490         0.564457
 H        -3.549151         1.062105         3.100756
 H        -2.105756         2.936106         3.017481
 H        -1.180209         1.806717         3.816575
 H        -0.671669         2.779225         0.781562
 H         0.015577         0.048372         2.808684
 H        -0.392014        -1.467509         2.211897
