19
Iteration:   583
 O         0.501279         0.087166         0.321779
 C        -0.860691         0.383315         0.786187
 C        -2.126060         0.275154        -0.037714
 C        -2.693112         1.292366         0.965360
 C        -2.605638         1.028957         2.514093
 C        -1.414245         1.994959         2.765839
 C        -1.230313         1.854912         1.242696
 O        -2.148332        -0.280789         2.724057
 C        -0.964875        -0.576411         1.904039
 H         0.871051         0.911822         0.005072
 H        -1.979458         0.783172        -0.938950
 H        -2.534803        -0.746387        -0.124341
 H        -3.564661         1.830263         0.699733
 H        -3.556963         1.048400         3.148443
 H        -1.868131         2.939036         2.994289
 H        -0.492136         1.596324         3.287639
 H        -0.643629         2.686510         0.882099
 H        -0.065076        -0.454755         2.554086
 H        -0.974320        -1.653012         1.637148
