19
Iteration:  1384
 O         0.432951         0.111453         0.219410
 C        -0.810887         0.312229         0.863237
 C        -2.083919         0.254783         0.014304
 C        -2.673339         1.332769         0.976603
 C        -2.646188         0.974906         2.489128
 C        -1.474462         2.058246         2.667839
 C        -1.273598         1.864447         1.163988
 O        -2.104126        -0.339775         2.769812
 C        -0.881341        -0.540145         2.093992
 H         0.650745         0.954217        -0.198038
 H        -1.949103         0.703024        -1.006928
 H        -2.644964        -0.734303        -0.061774
 H        -3.488176         1.994766         0.668883
 H        -3.643244         0.980000         2.944611
 H        -1.991931         3.028177         2.799709
 H        -0.578117         1.920086         3.266283
 H        -0.641453         2.577203         0.524921
 H        -0.010849        -0.283400         2.744423
 H        -0.738237        -1.695053         1.829500
