19
Iteration:  3659
 O         0.367771         0.200468         0.144001
 C        -0.807757         0.338892         0.878535
 C        -2.168654         0.090954         0.134705
 C        -2.680342         1.332606         0.906698
 C        -2.634169         1.003396         2.428006
 C        -1.595103         2.105272         2.656770
 C        -1.212712         1.842767         1.202209
 O        -2.033016        -0.312009         2.707542
 C        -0.753231        -0.483863         2.102860
 H         1.073571        -0.229568         0.650043
 H        -2.196613         0.095647        -0.930266
 H        -2.715559        -0.872170         0.241573
 H        -3.549537         2.040740         0.838017
 H        -3.564977         0.984807         2.938857
 H        -1.991172         3.146665         2.605102
 H        -0.863763         2.068730         3.503515
 H        -0.543060         2.457296         0.650523
 H        -0.138623        -0.118224         2.803685
 H        -0.541598        -1.658675         1.911077
