19
Iteration:   314charge 0 multiplicity 1
 O         0.534418         0.106103         0.307904
 C        -0.866850         0.341172         0.744714
 C        -2.128732         0.310921        -0.035174
 C        -2.569232         1.329765         1.053731
 C        -2.584884         0.932091         2.523554
 C        -1.458176         2.169015         2.775048
 C        -1.152463         1.899245         1.161300
 O        -2.206420        -0.447787         2.754115
 C        -1.011224        -0.642956         1.908407
 H         0.912719         1.038078         0.288765
 H        -2.211120         0.836401        -1.004271
 H        -2.558073        -0.598289        -0.172345
 H        -3.523996         2.087869         0.882620
 H        -3.518721         0.997435         3.000172
 H        -2.045465         3.055334         3.101351
 H        -0.780183         2.088391         3.570008
 H        -0.898530         2.797056         0.449131
 H        -0.133324        -0.371105         2.432828
 H        -1.125501        -1.664362         1.446394
