19
Iteration:  2287charge 0 multiplicity 1
 O         0.438660         0.139377         0.114800
 C        -0.798123         0.336383         0.851541
 C        -2.099211         0.128889         0.087090
 C        -2.592370         1.315920         0.914229
 C        -2.635186         1.036161         2.559108
 C        -1.528559         2.056227         2.676975
 C        -1.186083         1.864916         1.268110
 O        -2.214654        -0.311981         2.684688
 C        -0.856439        -0.555421         2.113846
 H         0.536836         0.950822        -0.434906
 H        -2.001828         0.340162        -0.971548
 H        -2.656307        -0.760850         0.397849
 H        -3.266623         2.115976         0.510974
 H        -3.589614         1.200028         3.085470
 H        -1.948333         3.124538         2.896093
 H        -0.642535         1.713354         3.333877
 H        -0.765134         2.717191         0.708485
 H         0.025585        -0.385302         2.911929
 H        -0.824314        -1.571933         1.680317
