19
Iteration:  3721charge 0 multiplicity 1
 O         0.497415         0.201908         0.258334
 C        -0.758295         0.371236         0.807342
 C        -2.145523         0.088681         0.088183
 C        -2.699170         1.242549         0.962022
 C        -2.627232         1.025795         2.526665
 C        -1.543381         2.056980         2.664181
 C        -1.302123         1.824032         1.094627
 O        -2.106965        -0.295204         2.764366
 C        -0.811102        -0.431481         2.045374
 H         0.395870        -0.344008        -0.542142
 H        -2.095836         0.458490        -0.932863
 H        -2.715472        -0.839868         0.300893
 H        -3.530905         1.866414         0.643228
 H        -3.508877         1.102820         3.144458
 H        -1.975590         3.074106         2.798096
 H        -0.751893         1.792989         3.396440
 H        -0.870874         2.651207         0.493783
 H         0.053834        -0.131193         2.832922
 H        -0.500288        -1.382911         1.806961
