19
Iteration:  1269charge 0 multiplicity 1
 O         0.523496         0.130779         0.344976
 C        -0.812434         0.356223         0.779417
 C        -2.156960         0.235019        -0.037409
 C        -2.701487         1.329250         0.945148
 C        -2.612462         0.968029         2.501067
 C        -1.450282         2.108412         2.720168
 C        -1.250705         1.879849         1.174290
 O        -2.089287        -0.322464         2.843359
 C        -0.971242        -0.635041         1.962542
 H         0.586112         0.822189        -0.350826
 H        -2.164679         0.636941        -1.148472
 H        -2.607026        -0.759113         0.080776
 H        -3.530686         1.894353         0.553624
 H        -3.562214         1.069910         3.017097
 H        -1.776131         3.092265         3.102540
 H        -0.540261         1.694648         3.206931
 H        -0.764416         2.695772         0.492934
 H        -0.052320        -0.490834         2.537034
 H        -0.963822        -1.608372         1.526970
