19
Iteration:   690
 O         0.387053         0.069522         0.186051
 C        -0.826511         0.392389         0.846975
 C        -2.037270         0.427335        -0.059920
 C        -2.557841         1.388112         0.980287
 C        -2.674746         0.871328         2.517730
 C        -1.508597         2.049919         2.743356
 C        -1.151272         1.833129         1.303031
 O        -2.173660        -0.429096         2.723701
 C        -0.886125        -0.505574         2.082123
 H         0.235720        -0.247042        -0.706568
 H        -1.720046         1.001645        -1.008373
 H        -2.561075        -0.539687        -0.422586
 H        -3.417747         2.133552         0.707363
 H        -3.750481         0.912136         2.990600
 H        -2.001572         2.969350         2.819557
 H        -0.818507         2.196673         3.517309
 H        -0.777348         2.575539         0.621030
 H        -0.040097        -0.250496         2.728295
 H        -0.751450        -1.599649         1.804643
