19
Iteration:  2908charge 0 multiplicity 1
 O         0.465523         0.193276         0.135302
 C        -0.799933         0.360868         0.835615
 C        -2.068852         0.206728         0.042918
 C        -2.656675         1.347942         0.930222
 C        -2.639570         0.994891         2.507618
 C        -1.468783         2.028584         2.767791
 C        -1.194349         1.850501         1.230979
 O        -2.199563        -0.324498         2.755928
 C        -0.888769        -0.630927         2.077864
 H         0.328564         0.698502        -0.676747
 H        -1.946443         0.721021        -0.926433
 H        -2.442831        -0.820714        -0.039721
 H        -3.561100         1.900769         0.517750
 H        -3.609553         1.142384         3.016597
 H        -1.946284         2.999039         3.125645
 H        -0.581335         1.701885         3.344747
 H        -0.633670         2.629322         0.587728
 H        -0.178486        -0.224506         2.824123
 H        -0.977313        -1.668799         1.816778
