19
Iteration:   511charge 0 multiplicity 1
 O         0.444835         0.242560         0.018372
 C        -0.749657         0.292022         0.846268
 C        -2.085798         0.167814         0.115874
 C        -2.586160         1.423084         0.930204
 C        -2.700107         1.018473         2.457299
 C        -1.518756         1.938235         2.771527
 C        -1.093127         1.859645         1.325767
 O        -2.284901        -0.375266         2.660388
 C        -0.840967        -0.473931         2.165458
 H         0.229364        -0.300312        -0.762992
 H        -1.952543         0.657417        -0.971775
 H        -2.748090        -0.708086         0.058716
 H        -3.394697         2.065186         0.443628
 H        -3.575351         1.187419         3.032791
 H        -1.940115         2.943563         3.033198
 H        -0.921222         1.485949         3.524184
 H        -0.466387         2.683947         0.808538
 H        -0.146233        -0.164470         2.963476
 H        -0.646551        -1.543592         2.219027
