19
Iteration:  3850charge 0 multiplicity 1
 O         0.512677         0.211143         0.131567
 C        -0.737988         0.298770         0.768439
 C        -2.155519         0.148090         0.109444
 C        -2.709441         1.182430         0.984063
 C        -2.644003         0.980266         2.561633
 C        -1.520462         2.100376         2.663153
 C        -1.282131         1.836733         1.140768
 O        -2.114478        -0.293058         2.721923
 C        -0.822120        -0.340015         2.160314
 H         0.746904        -0.725833         0.017594
 H        -2.278631         0.300382        -0.991965
 H        -2.567079        -0.856175         0.177247
 H        -3.574660         1.734711         0.712827
 H        -3.665062         1.002832         3.042010
 H        -1.944502         3.091784         2.704897
 H        -0.730014         2.007828         3.398318
 H        -1.053897         2.638628         0.377568
 H        -0.026227         0.093347         2.719399
 H        -0.710532        -1.563993         2.093480
