19
Iteration:  4440charge 0 multiplicity 1
 O         0.441408         0.401230         0.141851
 C        -0.781313         0.281797         0.941631
 C        -2.149881         0.034545         0.148453
 C        -2.678160         1.203895         0.875659
 C        -2.558255         1.027055         2.531360
 C        -1.546090         2.200542         2.544529
 C        -1.303362         1.827822         1.090153
 O        -2.074344        -0.259330         2.860892
 C        -0.842008        -0.629791         2.158043
 H         0.428271        -0.269501        -0.582939
 H        -1.907841         0.097306        -0.947545
 H        -2.615099        -0.936714         0.212425
 H        -3.623963         1.751855         0.575749
 H        -3.407083         1.317990         3.190204
 H        -1.977397         3.167078         2.711702
 H        -0.757310         2.120147         3.330509
 H        -0.839319         2.405062         0.260171
 H         0.214539        -0.680151         2.629503
 H        -0.974373        -1.694709         1.670077
