19
Iteration:  4753charge 0 multiplicity 1
 O         0.420447         0.246033         0.061356
 C        -0.746018         0.317321         0.856626
 C        -2.139696         0.145414         0.068107
 C        -2.690297         1.259914         0.916111
 C        -2.614303         1.015353         2.511515
 C        -1.598841         2.169417         2.566678
 C        -1.271988         1.823829         1.197834
 O        -2.004726        -0.317704         2.873212
 C        -0.854264        -0.566413         2.128212
 H         1.062074        -0.191070         0.627009
 H        -2.100545         0.194511        -1.040602
 H        -2.496516        -0.937117         0.183791
 H        -3.626961         1.843290         0.572263
 H        -3.543432         1.137385         3.227225
 H        -2.327733         3.051715         2.578683
 H        -0.846344         2.268777         3.349973
 H        -0.832933         2.555431         0.548262
 H         0.011158        -0.208072         2.622173
 H        -0.859375        -1.655673         1.996449
