19
Iteration:  4667
 O         0.311401         0.290121         0.085975
 C        -0.780750         0.300140         0.914950
 C        -2.154417         0.024418         0.152093
 C        -2.651489         1.295777         0.835401
 C        -2.631819         1.012947         2.450246
 C        -1.625628         2.171988         2.657995
 C        -1.194441         1.841104         1.183123
 O        -2.069636        -0.294749         2.770276
 C        -0.663351        -0.532221         2.194667
 H         0.375474        -0.508757        -0.494590
 H        -1.779172         0.332286        -0.820830
 H        -2.538325        -0.947849         0.217911
 H        -3.669471         1.805734         0.542960
 H        -3.647447         1.105827         3.035625
 H        -2.215791         3.128967         2.625280
 H        -0.902527         2.045336         3.480918
 H        -0.523692         2.437356         0.573791
 H         0.248116        -0.194414         2.909678
 H        -0.690715        -1.605571         2.128932
