19
Iteration:   954charge 0 multiplicity 1
 O         0.398218         0.059953         0.064048
 C        -0.792545         0.335340         0.861052
 C        -2.100699         0.287458         0.018812
 C        -2.627077         1.373571         0.958188
 C        -2.679740         1.002422         2.519787
 C        -1.578450         1.971957         2.802056
 C        -1.136608         1.851734         1.288879
 O        -2.127970        -0.302441         2.680899
 C        -0.853744        -0.523327         2.027606
 H         1.018519         0.769303         0.230041
 H        -1.855837         0.713532        -0.935629
 H        -2.548677        -0.675829        -0.272237
 H        -3.595933         1.947972         0.657736
 H        -3.649541         1.040273         3.106561
 H        -1.818683         2.987234         3.041606
 H        -0.954755         1.684053         3.637918
 H        -0.613942         2.606805         0.805727
 H        -0.178232        -0.294066         2.862525
 H        -0.800598        -1.609218         1.784713
