19
Iteration:  3383charge 0 multiplicity 1
 O         0.412598         0.149423         0.231827
 C        -0.849708         0.383158         0.936271
 C        -2.066821         0.163608         0.111009
 C        -2.633629         1.304893         0.973454
 C        -2.615954         0.965824         2.464149
 C        -1.564099         2.090857         2.656339
 C        -1.178787         1.958025         1.207918
 O        -2.147009        -0.334014         2.722930
 C        -0.823663        -0.572670         2.008161
 H         0.338311         0.099181        -0.726377
 H        -1.832663         0.524607        -0.903475
 H        -2.646917        -0.802482         0.203000
 H        -3.497992         1.933629         0.619256
 H        -3.644528         0.883701         2.898050
 H        -1.958726         3.101039         2.819591
 H        -0.727312         2.167650         3.357637
 H        -0.512001         2.532239         0.560777
 H        -0.025323        -0.565616         2.697041
 H        -0.847961        -1.557863         1.482065
