19
Iteration:  1141charge 0 multiplicity 1
 O         0.496343         0.244325         0.283320
 C        -0.773445         0.363612         0.805427
 C        -2.063191         0.212991         0.003561
 C        -2.677288         1.296458         1.022743
 C        -2.676428         1.049336         2.582447
 C        -1.424138         2.043802         2.676685
 C        -1.217352         1.824810         1.158581
 O        -2.173246        -0.335487         2.777410
 C        -0.966223        -0.669689         1.980897
 H         0.394151         0.612599        -0.604963
 H        -2.029300         0.705483        -0.895911
 H        -2.461162        -0.787832        -0.242665
 H        -3.410245         2.052418         0.575985
 H        -3.535332         1.201169         3.210421
 H        -1.708062         3.068211         2.913734
 H        -0.664060         1.832719         3.431095
 H        -0.841420         2.426367         0.449196
 H        -0.046025        -0.620509         2.494232
 H        -1.187153        -1.603505         1.507149
