19
Iteration:  2297
 O         0.426710         0.136606         0.049954
 C        -0.721054         0.310767         0.836808
 C        -2.088358         0.160545         0.128310
 C        -2.581664         1.386302         0.935608
 C        -2.648675         1.039882         2.483816
 C        -1.492214         2.072928         2.766154
 C        -1.182576         1.798638         1.236555
 O        -2.228842        -0.370110         2.698090
 C        -0.924208        -0.497692         2.125791
 H         0.549647         0.965917        -0.474349
 H        -2.168889         0.153821        -0.960765
 H        -2.518721        -0.838264         0.338077
 H        -3.393613         1.984960         0.470531
 H        -3.624882         0.981826         2.931157
 H        -1.884291         3.175633         2.950915
 H        -0.832876         1.913799         3.683677
 H        -0.775980         2.603052         0.596503
 H        -0.098194        -0.024353         2.871323
 H        -0.651415        -1.557844         2.025880
