19
Iteration:  3246
 O         0.415203         0.191117         0.190975
 C        -0.840089         0.288176         0.849887
 C        -2.146864         0.192142        -0.035556
 C        -2.632229         1.453281         0.888926
 C        -2.650862         0.900992         2.377050
 C        -1.507107         1.990827         2.736856
 C        -1.205500         1.806083         1.249942
 O        -2.116647        -0.255954         2.805994
 C        -0.835913        -0.584600         2.149601
 H         0.709748         1.096724        -0.067714
 H        -1.920423         0.504134        -1.060122
 H        -2.802633        -0.615041         0.057304
 H        -3.433678         2.174065         0.623908
 H        -3.607192         1.003945         2.848051
 H        -1.722280         3.046819         2.946479
 H        -0.659347         1.773812         3.373189
 H        -0.626468         2.543768         0.663628
 H        -0.065041        -0.516172         2.870925
 H        -0.727464        -1.656041         1.757197
