19
Iteration:  4971charge 0 multiplicity 1
 O         0.403541         0.237294         0.033074
 C        -0.744631         0.318527         0.794581
 C        -2.098367         0.098373         0.068013
 C        -2.655204         1.222495         0.972951
 C        -2.674589         1.016673         2.545432
 C        -1.563964         2.119450         2.646128
 C        -1.203322         1.782422         1.093910
 O        -2.111961        -0.259150         2.849450
 C        -0.844179        -0.540863         2.176161
 H         1.103711         0.814833         0.390107
 H        -2.169142         0.456433        -1.007501
 H        -2.663665        -0.848147         0.051593
 H        -3.462972         1.840729         0.667138
 H        -3.510567         1.273030         3.275774
 H        -2.080360         3.110389         2.610836
 H        -0.962820         2.001934         3.532789
 H        -0.744580         2.549916         0.466308
 H         0.089370        -0.446775         2.774264
 H        -0.751851        -1.723218         2.109250
