19
Iteration:   490
 O         0.442323         0.245428         0.186183
 C        -0.778035         0.448887         0.848437
 C        -2.126646         0.203457         0.084733
 C        -2.595434         1.430299         0.925241
 C        -2.673853         0.961761         2.483827
 C        -1.472008         1.937468         2.773685
 C        -1.126496         1.867388         1.227430
 O        -2.173533        -0.365179         2.672176
 C        -0.939564        -0.543278         2.055818
 H         0.431852        -0.678126        -0.167871
 H        -2.152341         0.256037        -1.087868
 H        -2.609289        -0.702092         0.455343
 H        -3.462711         2.162680         0.636619
 H        -3.692780         1.074704         2.815043
 H        -1.855443         2.955953         2.863817
 H        -0.754481         1.615973         3.440817
 H        -0.553309         2.631151         0.577161
 H        -0.096547        -0.571708         2.836406
 H        -0.906651        -1.604139         1.669303
