19
Iteration:  1185
 O         0.384530         0.002939         0.213012
 C        -0.806901         0.358935         0.829397
 C        -2.080720         0.299245         0.036393
 C        -2.633121         1.417276         0.952748
 C        -2.640433         0.972873         2.468281
 C        -1.649542         2.087106         2.768683
 C        -1.199616         1.875232         1.268538
 O        -2.059176        -0.349710         2.695710
 C        -0.777138        -0.549190         2.043721
 H         0.351013         0.101185        -0.749162
 H        -1.811818         0.629855        -0.902302
 H        -2.664963        -0.652813        -0.075941
 H        -3.539499         2.023884         0.570323
 H        -3.604747         0.948707         2.946811
 H        -1.849811         3.101898         3.065022
 H        -0.942221         1.762150         3.535795
 H        -0.769851         2.709581         0.834825
 H        -0.063624        -0.175803         2.728521
 H        -0.755140        -1.557510         1.659738
