19
Iteration:  2042charge 0 multiplicity 1
 O         0.395494         0.028642         0.047247
 C        -0.725896         0.357618         0.840570
 C        -2.113445         0.214967         0.102213
 C        -2.591598         1.417073         0.943067
 C        -2.739481         0.980134         2.466269
 C        -1.538754         1.999974         2.752772
 C        -1.170074         1.828253         1.286719
 O        -2.219426        -0.370084         2.662250
 C        -0.736133        -0.386918         2.175144
 H         0.666902         0.514389        -0.766052
 H        -2.175228         0.434629        -0.963735
 H        -2.649634        -0.682082         0.340593
 H        -3.318279         2.051597         0.563516
 H        -3.642002         1.034304         2.995732
 H        -2.142662         2.941367         3.079595
 H        -0.823254         1.967200         3.610721
 H        -0.761123         2.619376         0.709112
 H        -0.023936        -0.090181         2.842633
 H        -0.462428        -1.383753         1.992655
