19
Iteration:   837
 O         0.430997         0.280076         0.149803
 C        -0.816021         0.317620         0.902685
 C        -2.151844         0.318059         0.058747
 C        -2.608736         1.457196         0.945596
 C        -2.636174         1.004917         2.506002
 C        -1.497417         1.956082         2.755157
 C        -1.131191         1.824391         1.264975
 O        -2.169387        -0.366681         2.629357
 C        -0.916202        -0.638752         2.033414
 H         0.832185        -0.591545         0.314732
 H        -1.931153         0.609044        -0.948539
 H        -2.546552        -0.683614        -0.205273
 H        -3.344137         2.073203         0.623862
 H        -3.464639         0.977041         3.191955
 H        -2.022698         2.924806         2.905352
 H        -0.725264         1.753781         3.549018
 H        -0.667228         2.629960         0.635540
 H        -0.106288        -0.633453         2.774954
 H        -1.019187        -1.652854         1.651132
