19
Iteration:  3947
 O         0.373306         0.099632         0.113387
 C        -0.820449         0.378321         0.839251
 C        -2.134703         0.140243         0.064570
 C        -2.730000         1.297611         0.943390
 C        -2.660105         0.929612         2.447061
 C        -1.572839         2.075246         2.655900
 C        -1.259344         1.950097         1.110245
 O        -2.012599        -0.352437         2.768224
 C        -0.709115        -0.354031         2.261121
 H         0.744616        -0.794948         0.179897
 H        -1.840201         0.341524        -1.018527
 H        -2.688612        -0.739080         0.074678
 H        -3.646610         1.599417         0.515739
 H        -3.571720         1.035323         3.056366
 H        -1.901688         3.064612         2.984125
 H        -0.876009         1.875880         3.457779
 H        -0.797459         2.726823         0.459490
 H         0.093464         0.112177         2.952828
 H        -0.546932        -1.293334         1.932405
