19
Iteration:  1021
 O         0.515384         0.265064         0.247899
 C        -0.840137         0.329170         0.823203
 C        -2.148979         0.236082        -0.067213
 C        -2.632644         1.342445         0.994007
 C        -2.659090         0.998424         2.550779
 C        -1.459317         2.087207         2.734335
 C        -1.215113         1.816726         1.237257
 O        -2.146851        -0.357625         2.729980
 C        -0.913394        -0.598568         2.019297
 H         0.469843        -0.525705        -0.360631
 H        -1.951649         0.542786        -1.039160
 H        -2.859399        -0.633154        -0.100265
 H        -3.402415         2.088228         0.656167
 H        -3.575697         1.007209         3.132150
 H        -1.756245         3.038853         2.981010
 H        -0.701794         1.814828         3.420546
 H        -0.766113         2.480286         0.551241
 H         0.056624        -0.325703         2.516319
 H        -0.881598        -1.652772         1.665277
