19
Iteration:  1292charge 0 multiplicity 1
 O         0.506871         0.083046         0.292957
 C        -0.774673         0.432489         0.794327
 C        -2.077134         0.316818        -0.102241
 C        -2.672364         1.236523         1.022677
 C        -2.605772         0.997153         2.596417
 C        -1.510761         2.001785         2.652782
 C        -1.257899         1.828991         1.137028
 O        -2.107059        -0.325602         2.849573
 C        -0.993013        -0.522938         2.028187
 H         0.418027         0.267883        -0.677244
 H        -2.077620         1.022785        -1.038630
 H        -2.450630        -0.732717        -0.326215
 H        -3.429599         1.953881         0.625851
 H        -3.482613         1.275743         3.180423
 H        -2.087419         2.903181         2.892355
 H        -0.754150         1.777459         3.452182
 H        -0.768866         2.643354         0.442083
 H        -0.034715        -0.342858         2.568240
 H        -0.923991        -1.498286         1.626271
