19
Iteration:  1463
 O         0.401576         0.183934         0.106772
 C        -0.782081         0.374623         0.829343
 C        -2.135405         0.179154         0.086351
 C        -2.609243         1.327016         0.919819
 C        -2.622100         0.947700         2.432197
 C        -1.501968         2.057405         2.688229
 C        -1.156605         1.844142         1.289884
 O        -2.217777        -0.384281         2.730130
 C        -0.852454        -0.499561         2.195521
 H         0.415533         0.407332        -0.837576
 H        -1.915567         0.431670        -0.957244
 H        -2.589894        -0.806825         0.143641
 H        -3.084284         2.157783         0.528259
 H        -3.633431         1.094089         2.860728
 H        -1.950164         3.083216         2.940700
 H        -0.838610         1.918430         3.581498
 H        -0.702933         2.601219         0.694936
 H        -0.120703         0.035566         2.879533
 H        -0.504325        -1.603000         2.042354
