19
Iteration:  2793
 O         0.579782         0.234495         0.355009
 C        -0.845504         0.308951         0.767773
 C        -2.236341         0.169841         0.036570
 C        -2.677920         1.338314         1.031118
 C        -2.571836         1.044055         2.529277
 C        -1.422008         2.061144         2.666315
 C        -1.210314         1.791108         1.215587
 O        -2.174463        -0.348963         2.694558
 C        -0.939137        -0.600432         1.935832
 H         0.642423         0.975237        -0.255962
 H        -2.215682         0.626499        -0.990996
 H        -2.669423        -0.841821         0.260214
 H        -3.538721         1.956673         0.815918
 H        -3.538890         1.184471         3.055704
 H        -1.758974         3.058825         2.748814
 H        -0.563837         1.795525         3.274258
 H        -0.914774         2.568537         0.559996
 H         0.011957        -0.335744         2.536344
 H        -0.996704        -1.631779         1.581573
