19
Iteration:  1870
 O         0.448861         0.113925         0.179451
 C        -0.837141         0.378882         0.852415
 C        -2.114658         0.272788         0.033335
 C        -2.636381         1.400938         0.940805
 C        -2.644052         0.919432         2.460169
 C        -1.540300         2.077928         2.722957
 C        -1.134667         1.864578         1.206830
 O        -2.127205        -0.346245         2.815069
 C        -0.838590        -0.589487         2.050103
 H         0.370310         0.289257        -0.764526
 H        -2.056109         0.519615        -1.057388
 H        -2.737621        -0.608344         0.140380
 H        -3.526503         1.956415         0.652730
 H        -3.571640         1.098835         2.961690
 H        -1.994217         2.992359         2.856500
 H        -0.981109         1.773728         3.598636
 H        -0.581165         2.609750         0.549166
 H        -0.148027        -0.275128         2.664263
 H        -0.862591        -1.656510         1.855558
