19
Iteration:   393
 O         0.396535         0.107122         0.010110
 C        -0.758628         0.344574         0.840612
 C        -2.081834         0.287656         0.207763
 C        -2.545473         1.459672         0.986288
 C        -2.703054         0.976947         2.496854
 C        -1.579510         2.035630         2.788602
 C        -1.087476         1.811198         1.288797
 O        -2.276048        -0.440857         2.565114
 C        -0.839887        -0.521170         2.078329
 H         1.157349         0.701523         0.243560
 H        -2.018143         0.532082        -0.859726
 H        -2.658216        -0.557199         0.279535
 H        -3.429118         2.057168         0.495838
 H        -3.607447         1.115205         3.122905
 H        -2.117519         2.982516         2.748031
 H        -0.994867         1.810505         3.673528
 H        -0.425334         2.569567         0.795768
 H        -0.096644        -0.176028         2.769893
 H        -0.492022        -1.553104         1.831031
