19
Iteration:  2107
 O         0.569769         0.126368         0.339638
 C        -0.837367         0.356103         0.714282
 C        -2.202057         0.244737        -0.016876
 C        -2.681366         1.268490         0.980774
 C        -2.572167         0.956072         2.535996
 C        -1.444877         2.067367         2.657352
 C        -1.268863         1.923317         1.189883
 O        -2.138334        -0.303835         2.807936
 C        -0.924146        -0.575067         2.012971
 H         0.642234         0.390449        -0.581609
 H        -2.278657         0.641455        -1.052634
 H        -2.562545        -0.771072        -0.138272
 H        -3.572347         1.724113         0.699112
 H        -3.463768         1.191649         3.053013
 H        -2.002826         3.088609         2.925835
 H        -0.620363         2.082912         3.400289
 H        -0.697709         2.623149         0.652349
 H         0.050155        -0.486130         2.547881
 H        -1.120251        -1.654417         1.812214
