19
Iteration:  3994charge 0 multiplicity 1
 O         0.515022         0.304344         0.082049
 C        -0.780949         0.369544         0.826528
 C        -2.182971         0.051146         0.158330
 C        -2.617870         1.177507         0.949970
 C        -2.613217         1.001082         2.562453
 C        -1.618444         2.179607         2.609782
 C        -1.227972         1.766595         1.168796
 O        -2.102920        -0.235252         2.793457
 C        -0.862176        -0.555366         2.082983
 H         0.912070        -0.552862        -0.093212
 H        -2.422946         0.297538        -0.866630
 H        -2.543699        -0.948491         0.435266
 H        -3.458003         1.850113         0.645348
 H        -3.545480         1.094454         3.139036
 H        -2.009476         3.152815         2.727700
 H        -0.796302         2.270952         3.304711
 H        -0.771972         2.542780         0.466677
 H        -0.076225        -0.094088         2.711006
 H        -0.931833        -1.706427         1.777244
