19
Iteration:  4737
 O         0.352413         0.269263         0.208416
 C        -0.876811         0.365300         0.883388
 C        -2.095793         0.081504         0.035558
 C        -2.715103         1.220863         0.938467
 C        -2.568496         0.945472         2.558440
 C        -1.507629         2.159462         2.571379
 C        -1.269331         1.844837         1.021183
 O        -2.048209        -0.300764         2.875406
 C        -0.792893        -0.484865         2.091202
 H         0.928209        -0.330748         0.717080
 H        -1.990928         0.680828        -0.885739
 H        -2.525529        -0.946321        -0.125001
 H        -3.584260         1.752886         0.643384
 H        -3.509309         0.962347         3.005363
 H        -1.947305         3.127066         2.654658
 H        -0.724848         1.905371         3.329744
 H        -0.796513         2.565229         0.294738
 H         0.058050        -0.358112         2.860493
 H        -0.762738        -1.552564         1.534733
