19
Iteration:   410
 O         0.362862         0.100421         0.091465
 C        -0.744740         0.397350         0.893453
 C        -2.107669         0.240715         0.059853
 C        -2.642906         1.389729         0.961141
 C        -2.690379         0.996052         2.443693
 C        -1.533780         1.955560         2.798596
 C        -1.163809         1.888643         1.316306
 O        -2.134815        -0.308315         2.606672
 C        -0.862735        -0.553754         2.050821
 H         1.220323         0.360249         0.508067
 H        -1.912051         0.526205        -1.018689
 H        -2.558712        -0.822524        -0.006428
 H        -3.268972         2.194494         0.667006
 H        -3.648345         0.968646         2.933023
 H        -1.779169         2.983650         3.141431
 H        -0.744418         1.641721         3.528719
 H        -0.779389         2.765549         0.762293
 H        -0.135046        -0.609186         2.920386
 H        -0.994251        -1.568282         1.660400
