19
Iteration:  2100
 O         0.566422         0.168376         0.310034
 C        -0.798704         0.285173         0.739506
 C        -2.186529         0.195139        -0.027226
 C        -2.691980         1.322529         1.002560
 C        -2.653108         0.999681         2.550505
 C        -1.428119         2.122799         2.642466
 C        -1.232134         1.896393         1.213936
 O        -2.088893        -0.339636         2.777439
 C        -0.965167        -0.584122         2.016268
 H         0.712572         0.380512        -0.614259
 H        -2.111285         0.721703        -0.982532
 H        -2.646635        -0.809187        -0.014822
 H        -3.681750         1.853939         0.752551
 H        -3.524163         1.184800         3.237138
 H        -2.125535         2.974362         2.785924
 H        -0.642426         1.813125         3.396911
 H        -0.761520         2.679507         0.507694
 H        -0.116601        -0.381017         2.634016
 H        -1.163721        -1.644734         1.811305
