19
Iteration:  2505
 O         0.512690         0.182825         0.254062
 C        -0.761721         0.338087         0.781031
 C        -2.130450         0.167820         0.022168
 C        -2.686968         1.295482         0.920554
 C        -2.648275         1.059754         2.571511
 C        -1.494694         2.087920         2.731454
 C        -1.215492         1.780426         1.213498
 O        -2.130622        -0.290507         2.772434
 C        -0.930546        -0.601239         1.991638
 H         0.560872         0.850170        -0.453252
 H        -2.187798         0.695306        -1.030041
 H        -2.719583        -0.814445        -0.129512
 H        -3.423023         1.951415         0.421781
 H        -3.392393         0.989291         3.337167
 H        -1.723658         3.170236         2.875013
 H        -0.652952         1.866736         3.433732
 H        -0.806110         2.556374         0.553770
 H        -0.089687        -0.551741         2.722835
 H        -1.155224        -1.646597         1.632163
