19
Iteration:  3298
 O         0.411554         0.032102         0.101439
 C        -0.759447         0.396576         0.894337
 C        -2.076293         0.232797         0.136638
 C        -2.635181         1.341414         0.996427
 C        -2.594579         0.986229         2.488070
 C        -1.571943         2.118470         2.742587
 C        -1.217386         2.025879         1.161660
 O        -2.184491        -0.455771         2.615514
 C        -0.873874        -0.575946         2.089733
 H         1.209377         0.460460         0.496754
 H        -2.179278         0.539489        -0.907432
 H        -2.620566        -0.755631         0.287490
 H        -3.455341         1.935656         0.496304
 H        -3.492534         1.119657         3.107017
 H        -2.096747         3.082513         2.900253
 H        -0.711466         1.867503         3.443006
 H        -0.780159         2.820015         0.528376
 H        -0.106969        -0.220860         2.910947
 H        -0.557072        -1.498995         1.706509
