19
Iteration:  4771
 O         0.466657         0.152572        -0.042302
 C        -0.752614         0.338892         0.768137
 C        -2.151308         0.021729         0.166469
 C        -2.641413         1.253592         0.998630
 C        -2.709869         1.006440         2.486739
 C        -1.736312         2.179643         2.733157
 C        -1.199714         1.830678         1.167152
 O        -2.063617        -0.232144         2.800422
 C        -0.742695        -0.482179         2.126237
 H         1.256877         0.121686         0.508273
 H        -2.087127         0.296930        -0.870920
 H        -2.875848        -0.823245         0.321210
 H        -3.309883         1.939051         0.647593
 H        -3.618946         0.952265         2.962285
 H        -2.075703         3.197263         2.690087
 H        -1.059075         2.189817         3.582466
 H        -0.655228         2.536867         0.509575
 H         0.141714        -0.383509         2.867141
 H        -0.855438        -1.651407         1.847966
