19
Iteration:  1979charge 0 multiplicity 1
 O         0.502446         0.222890         0.302525
 C        -0.805063         0.398602         0.765556
 C        -2.080044         0.217349         0.008260
 C        -2.719069         1.292828         0.986912
 C        -2.601804         1.041552         2.518516
 C        -1.485919         2.016299         2.700069
 C        -1.200094         1.822600         1.120106
 O        -2.123225        -0.322307         2.840135
 C        -0.973069        -0.610305         1.998589
 H         0.443694         0.644740        -0.600121
 H        -2.041288         0.728628        -0.970884
 H        -2.574564        -0.739852        -0.039541
 H        -3.629032         1.791439         0.611041
 H        -3.429761         1.286940         3.152690
 H        -1.868858         2.943972         3.078338
 H        -0.641621         1.638313         3.308896
 H        -0.628189         2.411484         0.320591
 H        -0.046406        -0.784779         2.779394
 H        -1.165106        -1.589190         1.474240
