19
Iteration:  1327
 O         0.429044         0.112126         0.141625
 C        -0.763096         0.345511         0.911694
 C        -2.181839         0.190909         0.070852
 C        -2.594576         1.381318         0.916774
 C        -2.592529         1.026983         2.426815
 C        -1.607154         2.045410         2.757866
 C        -1.154264         1.897193         1.249109
 O        -2.132915        -0.359555         2.652496
 C        -0.798880        -0.534761         2.151436
 H         0.060688         0.204420        -0.764009
 H        -2.246575         0.460680        -1.053878
 H        -2.810164        -0.779794         0.255335
 H        -3.397121         2.133636         0.529359
 H        -3.520871         0.949773         3.014598
 H        -2.222614         2.943011         2.997051
 H        -0.876022         1.978572         3.586033
 H        -0.545824         2.701928         0.622288
 H        -0.114360        -0.322185         2.976272
 H        -0.647504        -1.657983         1.878080
