19
Iteration:  3970charge 0 multiplicity 1
 O         0.399693         0.181205         0.066854
 C        -0.863979         0.365627         0.843437
 C        -2.116668         0.058104         0.117004
 C        -2.698562         1.329347         0.943201
 C        -2.635619         0.988893         2.481230
 C        -1.557209         2.064506         2.644238
 C        -1.265873         1.822435         1.145141
 O        -2.087195        -0.342054         2.751678
 C        -0.712663        -0.388520         2.239162
 H         0.907279        -0.654423         0.144169
 H        -2.003553         0.423656        -0.940090
 H        -2.443615        -0.929103         0.115819
 H        -3.533887         1.938216         0.614142
 H        -3.547902         1.121927         3.077911
 H        -1.962882         3.050459         2.719875
 H        -0.794475         2.119149         3.414783
 H        -0.822735         2.658475         0.533155
 H         0.001258         0.233755         2.874680
 H        -0.494148        -1.387717         1.946811
