19
Iteration:  3762charge 0 multiplicity 1
 O         0.474890         0.199864         0.180792
 C        -0.823487         0.354798         0.829859
 C        -2.162440         0.032018         0.079973
 C        -2.716004         1.248137         1.001787
 C        -2.588070         1.004961         2.519931
 C        -1.491576         2.116157         2.578655
 C        -1.223431         1.832711         1.144852
 O        -2.129119        -0.348257         2.770011
 C        -0.842441        -0.451523         2.122338
 H         0.828508         1.074416        -0.037076
 H        -1.964298         0.415048        -0.998173
 H        -2.508329        -1.002499         0.162587
 H        -3.474733         1.924336         0.642354
 H        -3.549586         1.212431         3.105717
 H        -1.982460         3.011791         2.890837
 H        -0.730768         2.066100         3.332611
 H        -0.972664         2.581177         0.322070
 H        -0.008231        -0.138952         2.686851
 H        -0.897497        -1.538240         1.914681
