19
Iteration:  3722charge 0 multiplicity 1
 O         0.495697         0.202362         0.268859
 C        -0.758762         0.372214         0.810735
 C        -2.149092         0.089839         0.088766
 C        -2.709519         1.254555         0.972534
 C        -2.623582         1.022106         2.518980
 C        -1.537600         2.060935         2.657129
 C        -1.301082         1.822794         1.085141
 O        -2.103964        -0.298341         2.761755
 C        -0.810159        -0.433013         2.046311
 H         0.394596        -0.319181        -0.556717
 H        -2.074856         0.401479        -0.926569
 H        -2.730048        -0.845083         0.289693
 H        -3.545356         1.881516         0.621268
 H        -3.481287         1.096873         3.121105
 H        -2.026301         3.067677         2.820965
 H        -0.727529         1.775382         3.381648
 H        -0.874327         2.654737         0.537332
 H         0.070728        -0.138254         2.812156
 H        -0.490645        -1.423200         1.820108
