19
Iteration:  3261
 O         0.407284         0.158052         0.112717
 C        -0.816150         0.280759         0.825561
 C        -2.130969         0.253578        -0.029289
 C        -2.599311         1.315859         0.889533
 C        -2.711340         1.097380         2.467063
 C        -1.569246         2.021010         2.751947
 C        -1.135686         1.791397         1.250726
 O        -2.089133        -0.349033         2.809503
 C        -0.864050        -0.550776         2.114358
 H         0.794048         1.044794         0.083684
 H        -1.872930         0.697101        -1.057851
 H        -2.634861        -0.849737        -0.099813
 H        -3.339322         2.015317         0.528533
 H        -3.694659         1.032923         2.973764
 H        -1.857814         3.051628         3.021333
 H        -1.083605         1.650793         3.692636
 H        -0.569450         2.576142         0.726690
 H         0.031727        -0.111760         2.572568
 H        -0.841385        -1.682902         2.123971
