19
Iteration:   259
 O         0.454434         0.133226         0.102208
 C        -0.764603         0.414276         0.807872
 C        -2.114341         0.238343         0.031963
 C        -2.548396         1.367604         0.895022
 C        -2.700735         0.961000         2.456440
 C        -1.512049         1.916778         2.848560
 C        -1.074261         1.865508         1.373505
 O        -2.264560        -0.372829         2.666868
 C        -0.893943        -0.423961         2.060060
 H         0.278462         0.225503        -0.842638
 H        -2.277047         0.385179        -1.056087
 H        -2.549310        -0.587410         0.466644
 H        -3.498690         2.069069         0.602299
 H        -3.685813         1.072449         2.865245
 H        -1.819571         2.949954         3.221709
 H        -0.816100         1.499451         3.557214
 H        -0.465056         2.810142         1.108888
 H        -0.116703        -0.246396         2.801598
 H        -0.685024        -1.535020         1.846337
