19
Iteration:  2035
 O         0.402552        -0.006639         0.090235
 C        -0.721121         0.354419         0.791127
 C        -2.109881         0.227402         0.118672
 C        -2.663324         1.381314         0.994444
 C        -2.732088         0.968414         2.455285
 C        -1.557967         1.991908         2.747369
 C        -1.135947         1.830645         1.326755
 O        -2.173975        -0.309122         2.628312
 C        -0.743155        -0.417860         2.153867
 H         0.554278         0.623909        -0.645185
 H        -2.104264         0.496608        -0.960493
 H        -2.795390        -0.660585         0.149806
 H        -3.470533         2.076333         0.545149
 H        -3.671031         0.986321         3.088293
 H        -2.129796         2.903978         2.731044
 H        -0.720087         1.999822         3.490410
 H        -0.686035         2.776590         0.824378
 H        -0.091054         0.160797         2.962852
 H        -0.478027        -1.472558         1.827430
