19
Iteration:  4084charge 0 multiplicity 1
 O         0.346940         0.179714         0.072739
 C        -0.791879         0.347407         0.876106
 C        -2.169940         0.089287         0.187791
 C        -2.660769         1.303590         0.924083
 C        -2.611709         0.965127         2.487475
 C        -1.644647         2.147522         2.713916
 C        -1.194197         1.904197         1.104908
 O        -2.042975        -0.290849         2.694591
 C        -0.701752        -0.449272         2.169244
 H         0.505722        -0.786873         0.082042
 H        -1.992327        -0.010850        -0.833806
 H        -2.591158        -0.936586         0.436609
 H        -3.533232         1.854996         0.512393
 H        -3.541109         0.811603         3.038729
 H        -2.042125         3.142226         2.702424
 H        -0.956086         2.049723         3.513304
 H        -0.825416         2.541275         0.317526
 H        -0.038826        -0.102219         3.067898
 H        -0.446470        -1.581941         1.879759
