19
Iteration:  3769
 O         0.489269         0.193832         0.111334
 C        -0.838590         0.336168         0.791669
 C        -2.104147         0.041596         0.091248
 C        -2.716723         1.224394         0.985147
 C        -2.639411         0.996127         2.534588
 C        -1.501032         2.085040         2.629650
 C        -1.226885         1.831766         1.163446
 O        -2.124639        -0.274910         2.773915
 C        -0.886801        -0.443817         2.140262
 H         0.894428         1.086220         0.116879
 H        -2.127004         0.486510        -0.915464
 H        -2.301242        -1.033190         0.103944
 H        -3.538670         1.967666         0.763335
 H        -3.517896         1.111562         3.194994
 H        -2.005701         3.118956         2.591991
 H        -0.654696         1.994937         3.368774
 H        -0.835073         2.467295         0.363859
 H         0.002547        -0.257115         2.807668
 H        -0.687969        -1.619463         1.968585
