19
Iteration:   751charge 0 multiplicity 1
 O         0.452576         0.359176         0.197194
 C        -0.820436         0.359402         0.834125
 C        -2.174830         0.231512         0.065698
 C        -2.626584         1.407138         0.954491
 C        -2.597593         1.053276         2.512220
 C        -1.407493         1.897195         2.749183
 C        -1.083777         1.804353         1.235945
 O        -2.311197        -0.401017         2.603503
 C        -0.907202        -0.596808         2.055215
 H         0.884270        -0.499830         0.252849
 H        -2.054843         0.554483        -0.962486
 H        -2.561538        -0.724810         0.324914
 H        -3.474876         1.950352         0.656619
 H        -3.418831         1.374668         3.059197
 H        -1.904826         2.930542         2.868512
 H        -0.708231         1.517677         3.576597
 H        -0.519741         2.554402         0.622429
 H        -0.070092        -0.390898         2.825048
 H        -0.922076        -1.576434         1.638569
