19
Iteration:   878
 O         0.549618         0.302777         0.229713
 C        -0.788067         0.386613         0.781468
 C        -2.139856         0.212021         0.030477
 C        -2.665922         1.392768         0.975528
 C        -2.603593         0.974817         2.576742
 C        -1.401608         1.882561         2.734465
 C        -1.184061         1.851980         1.203184
 O        -2.283456        -0.357109         2.600865
 C        -0.958717        -0.537491         2.111999
 H         0.600802        -0.290242        -0.567980
 H        -2.067137         0.594295        -0.975401
 H        -2.775260        -0.720228         0.196626
 H        -3.461837         2.150685         0.558380
 H        -3.517954         1.183901         3.247119
 H        -1.661139         2.769715         3.186780
 H        -0.607211         1.578566         3.360724
 H        -0.600937         2.628205         0.704013
 H        -0.200509        -0.469590         2.849363
 H        -0.963845        -1.622720         1.745067
