19
Iteration:  1881charge 0 multiplicity 1
 O         0.450581         0.016207         0.104688
 C        -0.715318         0.366197         0.818776
 C        -2.152995         0.286899         0.038870
 C        -2.599884         1.360377         0.962190
 C        -2.742251         0.925784         2.483228
 C        -1.593477         2.060752         2.742683
 C        -1.151016         1.820256         1.265132
 O        -2.106721        -0.306940         2.758902
 C        -0.868934        -0.446739         2.112918
 H         0.193903         0.482385        -0.735404
 H        -2.046950         0.668461        -1.013929
 H        -2.547454        -0.722379         0.052981
 H        -3.295252         2.174918         0.778370
 H        -3.723702         0.707426         2.839732
 H        -1.898747         3.019278         2.948334
 H        -0.847237         1.807190         3.496012
 H        -0.614843         2.663241         0.721415
 H        -0.055398        -0.252212         2.673119
 H        -0.674933        -1.498655         1.901648
