19
Iteration:  3169charge 0 multiplicity 1
 O         0.372386         0.234671         0.184600
 C        -0.825940         0.357385         0.864116
 C        -2.107501         0.260618        -0.018970
 C        -2.586107         1.373554         0.887402
 C        -2.682794         0.901284         2.375535
 C        -1.547524         1.982894         2.704565
 C        -1.144266         1.820131         1.301969
 O        -2.077216        -0.313004         2.795444
 C        -0.857845        -0.510106         2.153529
 H         0.161735        -0.487022        -0.444328
 H        -1.793149         0.696053        -1.051284
 H        -2.568347        -0.777991        -0.035782
 H        -3.404906         2.148736         0.704779
 H        -3.702495         1.047319         2.760456
 H        -2.059008         2.924575         3.011706
 H        -0.765970         1.700880         3.434369
 H        -0.581897         2.472881         0.590608
 H        -0.106914        -0.112481         2.823682
 H        -0.773523        -1.697380         1.874324
