19
Iteration:   986charge 0 multiplicity 1
 O         0.474344         0.280894         0.146340
 C        -0.848557         0.410477         0.858724
 C        -2.175201         0.182665         0.125666
 C        -2.614430         1.386613         0.958601
 C        -2.618886         0.971938         2.525426
 C        -1.385828         1.967146         2.687436
 C        -1.108778         1.935195         1.161731
 O        -2.275956        -0.452811         2.651479
 C        -0.936974        -0.542645         2.029227
 H         1.171589        -0.018082         0.791991
 H        -2.080215         0.440902        -0.933459
 H        -2.731909        -0.714473         0.392906
 H        -3.665927         1.858879         0.699154
 H        -3.544409         1.175019         3.161206
 H        -1.786859         2.950463         2.994722
 H        -0.584603         1.533301         3.297398
 H        -0.609879         2.609300         0.573014
 H        -0.274833        -0.341757         2.996869
 H        -0.705749        -1.589484         1.649858
