19
Iteration:   893charge 0 multiplicity 1
 O         0.485790         0.175695         0.252275
 C        -0.746025         0.410930         0.874859
 C        -2.151713         0.297213         0.085983
 C        -2.648851         1.403300         0.994579
 C        -2.700207         1.000880         2.436911
 C        -1.452254         1.960947         2.748667
 C        -1.200994         1.844664         1.285689
 O        -2.167685        -0.365123         2.639305
 C        -0.914402        -0.593158         1.981898
 H         0.211314        -0.164052        -0.600434
 H        -1.992453         0.664014        -0.964834
 H        -2.496683        -0.765910         0.144977
 H        -3.414154         2.015691         0.711800
 H        -3.615955         1.049585         2.948584
 H        -1.671356         3.065893         2.971496
 H        -0.685804         1.474937         3.419629
 H        -0.772901         2.652058         0.579130
 H        -0.026833        -0.401487         2.644716
 H        -0.749347        -1.568227         1.544160
