19
Iteration:   135
 O         0.439563         0.257063         0.093768
 C        -0.810871         0.400766         0.856935
 C        -2.174383         0.319654         0.057797
 C        -2.576804         1.454490         1.011483
 C        -2.603018         0.947964         2.461560
 C        -1.442510         1.988156         2.747784
 C        -1.056164         1.884621         1.278630
 O        -2.280067        -0.559245         2.615994
 C        -0.944709        -0.550437         2.115528
 H         0.820651        -0.610634         0.240642
 H        -1.986811         0.785948        -0.824768
 H        -2.772315        -0.663013        -0.079612
 H        -3.384071         2.235412         0.705585
 H        -3.571146         1.117124         3.054599
 H        -1.992289         2.874886         2.748189
 H        -0.743737         1.889731         3.560897
 H        -0.518803         2.677944         0.751755
 H        -0.211228        -0.344661         2.974869
 H        -0.791308        -1.585589         1.709747
