19
Iteration:  4151charge 0 multiplicity 1
 O         0.485387         0.223908         0.241774
 C        -0.846654         0.411162         0.790180
 C        -2.111427         0.074970         0.096385
 C        -2.778447         1.224130         0.972161
 C        -2.587382         0.916817         2.603615
 C        -1.433515         2.185801         2.579931
 C        -1.328628         1.833013         1.033787
 O        -2.095729        -0.311053         2.813024
 C        -0.793477        -0.432360         2.082615
 H         0.442939        -0.586852        -0.285996
 H        -2.045218         0.397778        -0.941353
 H        -2.650283        -0.875021         0.122113
 H        -3.751948         1.629726         0.721939
 H        -3.485651         1.118021         3.190648
 H        -1.910443         3.137268         2.747587
 H        -0.681034         1.986219         3.281626
 H        -0.993867         2.565414         0.342008
 H         0.178205        -0.056379         2.666897
 H        -0.677117        -1.591657         1.940947
