19
Iteration:  1796
 O         0.394565         0.131122         0.254103
 C        -0.830800         0.336698         0.832129
 C        -2.114172         0.250579         0.032176
 C        -2.671126         1.373367         0.902672
 C        -2.637048         1.033561         2.454127
 C        -1.464955         2.040942         2.750376
 C        -1.223884         1.811013         1.206897
 O        -2.109245        -0.393494         2.718656
 C        -0.816318        -0.481640         2.079518
 H         0.373443         0.220963        -0.726990
 H        -2.040250         0.439345        -1.056082
 H        -2.566836        -0.743297         0.198079
 H        -3.557579         2.063361         0.728608
 H        -3.639650         1.108550         2.907365
 H        -1.837736         3.031167         3.078973
 H        -0.693219         1.664361         3.490104
 H        -0.738099         2.577060         0.672461
 H         0.044676        -0.086292         2.778951
 H        -0.707499        -1.568450         1.834863
