19
Iteration:  3416
 O         0.511551         0.023419         0.145699
 C        -0.790900         0.361542         0.730776
 C        -2.152555         0.158117         0.065145
 C        -2.639667         1.353104         1.000826
 C        -2.731032         0.972735         2.541262
 C        -1.540874         1.999213         2.709908
 C        -1.202256         1.851179         1.212255
 O        -2.161865        -0.305016         2.684171
 C        -0.785226        -0.394352         2.130563
 H         0.740478         0.957772        -0.048528
 H        -2.057653         0.585737        -0.928226
 H        -2.815951        -0.739291         0.096148
 H        -3.504510         2.028660         0.721812
 H        -3.687777         1.155705         3.087871
 H        -2.018996         2.957669         2.824013
 H        -0.786657         1.633341         3.390252
 H        -0.671548         2.542435         0.549662
 H        -0.174004         0.082534         2.880417
 H        -0.404411        -1.442106         2.018098
