19
Iteration:  3417
 O         0.509441         0.025353         0.142865
 C        -0.787327         0.360393         0.734007
 C        -2.150930         0.156857         0.069520
 C        -2.640433         1.355672         1.002166
 C        -2.740659         0.971357         2.534723
 C        -1.530625         2.000557         2.705694
 C        -1.199464         1.842267         1.213988
 O        -2.158967        -0.305731         2.686460
 C        -0.787215        -0.389775         2.128237
 H         0.737876         0.957963        -0.013948
 H        -2.054916         0.598514        -0.927970
 H        -2.839481        -0.767447         0.052593
 H        -3.521599         2.004115         0.732796
 H        -3.661031         1.164670         3.084726
 H        -2.013828         2.948047         2.825166
 H        -0.801247         1.639072         3.415927
 H        -0.684347         2.551765         0.576121
 H        -0.196228         0.081457         2.857262
 H        -0.428543        -1.384900         2.026085
