19
Iteration:   671charge 0 multiplicity 1
 O         0.505931        -0.038696         0.078318
 C        -0.771754         0.365989         0.810251
 C        -2.112179         0.385340        -0.027491
 C        -2.612028         1.410835         0.977582
 C        -2.624024         0.961907         2.485308
 C        -1.664824         2.031137         2.851713
 C        -1.128730         1.943488         1.287674
 O        -2.166906        -0.390706         2.699417
 C        -0.880833        -0.542641         2.114570
 H         0.361745         0.008174        -0.864311
 H        -2.014288         0.757144        -1.012565
 H        -2.648359        -0.590197        -0.241912
 H        -3.444851         2.044727         0.692847
 H        -3.622793         1.192455         3.025400
 H        -2.214580         2.978042         3.102698
 H        -1.033991         1.623801         3.735707
 H        -0.565646         2.793454         0.898597
 H        -0.059990        -0.143984         2.813571
 H        -0.542667        -1.587851         1.971718
