19
Iteration:  3693charge 0 multiplicity 1
 O         0.417714         0.230220        -0.019394
 C        -0.707999         0.329589         0.820113
 C        -2.016381         0.095367         0.018527
 C        -2.681198         1.245044         0.952830
 C        -2.665825         0.997520         2.495178
 C        -1.611013         2.100918         2.695227
 C        -1.230743         1.839121         1.178580
 O        -2.146603        -0.275900         2.873706
 C        -0.839022        -0.486660         2.183159
 H         0.600432        -0.720845        -0.055902
 H        -1.806180         0.617088        -0.936255
 H        -2.542776        -0.848702         0.184510
 H        -3.511071         1.990281         0.777296
 H        -3.633273         1.036130         3.041295
 H        -2.144309         3.075775         2.742955
 H        -0.859336         2.096676         3.510079
 H        -0.674832         2.637478         0.679174
 H        -0.180170        -0.126552         2.890307
 H        -0.458651        -1.587183         1.931563
