19
Iteration:  4089charge 0 multiplicity 1
 O         0.307090         0.204405         0.061919
 C        -0.810101         0.371223         0.902076
 C        -2.163412         0.066425         0.193460
 C        -2.630787         1.303075         0.885626
 C        -2.593754         0.988693         2.469169
 C        -1.668192         2.152778         2.685921
 C        -1.184133         1.880102         1.114484
 O        -2.017154        -0.319755         2.707950
 C        -0.690487        -0.457852         2.182103
 H         0.460999        -0.744881         0.171861
 H        -2.026394         0.067098        -0.965965
 H        -2.629493        -0.825855         0.569535
 H        -3.483821         1.783033         0.420203
 H        -3.520795         0.837537         3.049321
 H        -2.061246         3.202918         2.893647
 H        -0.979203         1.946216         3.589909
 H        -0.679570         2.526648         0.340570
 H        -0.055537        -0.222312         2.997603
 H        -0.668750        -1.481498         1.975531
