19
Iteration:  3281charge 0 multiplicity 1
 O         0.438503         0.055494         0.058316
 C        -0.720439         0.390155         0.786112
 C        -2.070514         0.227602         0.070974
 C        -2.641736         1.361353         0.987986
 C        -2.684470         0.939308         2.539988
 C        -1.538553         2.072741         2.716709
 C        -1.188170         1.814231         1.288424
 O        -2.204721        -0.328171         2.697563
 C        -0.853561        -0.480946         2.109483
 H         1.088092         0.792495         0.161402
 H        -1.851464         0.535196        -0.982654
 H        -2.509085        -0.785470        -0.062479
 H        -3.465756         2.004107         0.805988
 H        -3.659320         0.983996         3.023142
 H        -2.131362         2.987215         2.663521
 H        -0.853611         2.081142         3.542419
 H        -0.790087         2.639300         0.679348
 H        -0.154111        -0.307201         2.871311
 H        -0.943189        -1.582892         1.765832
