19
Iteration:   961charge 0 multiplicity 1
 O         0.404898         0.092077         0.076276
 C        -0.837737         0.379750         0.841397
 C        -2.071486         0.249272         0.010782
 C        -2.643168         1.365240         0.953229
 C        -2.660642         1.009000         2.484025
 C        -1.496799         1.951177         2.795712
 C        -1.187755         1.854746         1.325998
 O        -2.140458        -0.312336         2.656877
 C        -0.891732        -0.536922         2.078645
 H         1.138278         0.662261         0.350495
 H        -1.910484         0.646619        -1.077272
 H        -2.643467        -0.677767         0.083018
 H        -3.390536         2.094679         0.600037
 H        -3.575821         1.081430         3.097388
 H        -2.014146         2.985817         3.020240
 H        -0.717956         1.518839         3.512137
 H        -0.737381         2.723230         0.740234
 H         0.014479        -0.271128         2.791465
 H        -0.824706        -1.626310         1.828691
