19
Iteration:  2265
 O         0.479055         0.136025         0.312548
 C        -0.811605         0.341144         0.845428
 C        -2.152895         0.240892         0.076352
 C        -2.731989         1.362379         0.951380
 C        -2.575989         1.013435         2.446865
 C        -1.461267         2.067529         2.676549
 C        -1.209645         1.819275         1.144157
 O        -2.078665        -0.328491         2.769604
 C        -0.948557        -0.593567         2.041402
 H         0.590706         0.694193        -0.468186
 H        -2.083228         0.688266        -0.903579
 H        -2.583570        -0.792605         0.112804
 H        -3.685298         1.878927         0.610795
 H        -3.591324         0.975218         2.858401
 H        -1.966626         3.120525         2.756748
 H        -0.726915         1.723213         3.514318
 H        -0.767469         2.565233         0.443905
 H         0.055617        -0.349700         2.628060
 H        -0.838690        -1.554446         1.519396
