19
Iteration:   162charge 0 multiplicity 1
 O         0.509604         0.319294         0.266577
 C        -0.833191         0.349795         0.809567
 C        -2.171414         0.210556         0.034303
 C        -2.640696         1.409838         1.011432
 C        -2.546841         1.013700         2.527939
 C        -1.386733         1.986711         2.784804
 C        -1.239474         1.872828         1.266001
 O        -2.220897        -0.355576         2.562049
 C        -0.999333        -0.684505         1.942951
 H         1.059966        -0.442181         0.485303
 H        -1.970445         0.743942        -1.006642
 H        -2.656311        -0.717555         0.060247
 H        -3.421906         2.112093         0.686485
 H        -3.366255         1.146295         3.178566
 H        -1.820009         3.006921         3.124518
 H        -0.543193         1.583192         3.397652
 H        -0.804786         2.644944         0.579490
 H        -0.143578        -0.727199         2.599559
 H        -1.042431        -1.782562         1.669770
