19
Iteration:  2241
 O         0.503425         0.100743         0.345822
 C        -0.727020         0.384674         0.771238
 C        -2.244049         0.191705        -0.160682
 C        -2.710479         1.345447         0.975143
 C        -2.593926         0.955242         2.648498
 C        -1.461744         2.076318         2.677441
 C        -1.220015         1.869509         1.123937
 O        -2.120273        -0.317982         2.807971
 C        -0.939802        -0.545118         2.053225
 H         0.766233         0.315367        -0.548027
 H        -2.100106         0.881730        -1.055210
 H        -2.576242        -0.860170        -0.374637
 H        -3.614636         1.945861         0.682429
 H        -3.505992         0.952328         3.263692
 H        -2.135151         3.085042         2.784210
 H        -0.605079         1.924852         3.465022
 H        -0.689776         2.628221         0.510561
 H         0.080195        -0.260016         2.675256
 H        -0.881982        -1.589200         1.644360
