19
Iteration:  3934charge 0 multiplicity 1
 O         0.471686         0.128747         0.096582
 C        -0.777493         0.381092         0.825735
 C        -2.149405         0.101696         0.087280
 C        -2.699238         1.249927         0.925506
 C        -2.616657         0.991362         2.505231
 C        -1.613477         2.114269         2.672561
 C        -1.282451         1.886736         1.154336
 O        -2.066664        -0.323951         2.811588
 C        -0.768322        -0.399108         2.101419
 H         0.500796        -0.851702         0.211088
 H        -2.164295         0.598145        -0.915287
 H        -2.433772        -0.979433         0.198651
 H        -3.502563         1.974473         0.737912
 H        -3.607384         0.957554         3.001877
 H        -2.221371         3.081580         2.707593
 H        -0.783347         2.004769         3.413972
 H        -0.883907         2.689245         0.566457
 H         0.106774         0.011728         2.781766
 H        -0.501353        -1.386449         2.058648
