19
Iteration:  1115charge 0 multiplicity 1
 O         0.443274         0.202708         0.264485
 C        -0.802167         0.345556         0.825228
 C        -2.175704         0.200785         0.065359
 C        -2.691191         1.353680         0.870453
 C        -2.600838         1.005038         2.464531
 C        -1.382131         1.936104         2.710429
 C        -1.199702         1.935845         1.192084
 O        -2.208218        -0.396526         2.720500
 C        -0.877085        -0.562312         2.082980
 H         0.505166         1.052508        -0.205304
 H        -2.013221         0.396426        -1.084925
 H        -2.676929        -0.763770         0.164265
 H        -3.577715         1.932080         0.652113
 H        -3.566264         1.222033         3.009075
 H        -1.600488         2.953168         3.201544
 H        -0.582635         1.695847         3.476274
 H        -0.525444         2.732439         0.562854
 H        -0.039360        -0.200747         2.678661
 H        -0.839382        -1.616058         1.815728
