19
Iteration:  4678charge 0 multiplicity 1
 O         0.381825         0.310062         0.125004
 C        -0.806239         0.297741         0.892359
 C        -2.143709         0.056060         0.162209
 C        -2.630406         1.232448         0.977258
 C        -2.571886         0.991564         2.439657
 C        -1.579913         2.158729         2.575198
 C        -1.239125         1.816202         1.172807
 O        -2.098333        -0.280386         2.743512
 C        -0.758193        -0.502121         2.151586
 H         0.580066        -0.607339        -0.213343
 H        -2.212934         0.158695        -0.933450
 H        -2.629318        -0.857215         0.359530
 H        -3.560267         1.878181         0.632718
 H        -3.661880         0.929430         2.859520
 H        -1.977289         3.205478         2.662578
 H        -0.938341         2.098401         3.472112
 H        -0.824188         2.596574         0.547709
 H         0.060619        -0.060991         2.901403
 H        -0.513784        -1.529813         1.923573
