19
Iteration:   658charge 0 multiplicity 1
 O         0.480809        -0.041890         0.099449
 C        -0.739579         0.355753         0.788443
 C        -2.091241         0.301325         0.097621
 C        -2.630533         1.451550         0.947481
 C        -2.763053         0.966374         2.457537
 C        -1.562791         1.972480         2.835835
 C        -1.156951         1.902420         1.395718
 O        -2.150015        -0.311370         2.627139
 C        -0.839748        -0.475032         2.052293
 H         0.444524         0.405229        -0.793986
 H        -1.979286         0.712572        -0.916971
 H        -2.635946        -0.700075         0.209138
 H        -3.506379         2.068378         0.539720
 H        -3.803488         0.706455         2.955774
 H        -1.919155         2.977700         2.941139
 H        -0.817134         1.789162         3.611798
 H        -0.617584         2.670623         0.886178
 H        -0.029166        -0.217438         2.784837
 H        -0.916012        -1.578066         1.818467
