19
Iteration:  2344
 O         0.434653         0.014422         0.211652
 C        -0.845391         0.364135         0.815785
 C        -2.118316         0.238865         0.026788
 C        -2.684944         1.379167         0.944418
 C        -2.624426         0.936059         2.482960
 C        -1.544572         2.120496         2.790662
 C        -1.176690         1.937574         1.196664
 O        -2.138768        -0.335540         2.729199
 C        -0.803469        -0.536570         2.094145
 H         0.571919         0.241859        -0.722596
 H        -1.901353         0.563566        -0.980040
 H        -2.586254        -0.740022         0.050180
 H        -3.486522         2.061523         0.627369
 H        -3.669481         0.824474         2.914951
 H        -2.022442         3.045350         3.080891
 H        -0.676490         1.902158         3.492606
 H        -0.661819         2.620577         0.504766
 H         0.105161        -0.201905         2.692159
 H        -0.732429        -1.574455         1.638042
