19
Iteration:  2029charge 0 multiplicity 1
 O         0.431056        -0.031787         0.124398
 C        -0.765508         0.366870         0.803246
 C        -2.148674         0.239809         0.122999
 C        -2.701482         1.354520         0.995641
 C        -2.671007         0.957086         2.492075
 C        -1.596171         2.009847         2.751075
 C        -1.125462         1.866696         1.288616
 O        -2.107462        -0.302448         2.599307
 C        -0.792703        -0.429770         2.106864
 H         0.417247         0.695336        -0.503152
 H        -1.929397         0.644140        -0.883846
 H        -2.643841        -0.743175         0.025239
 H        -3.455179         2.036198         0.655852
 H        -3.623605         0.975114         3.035763
 H        -1.972200         3.073293         2.551079
 H        -0.864237         1.909324         3.550391
 H        -0.591212         2.702684         0.923752
 H        -0.192874         0.057727         2.837490
 H        -0.606135        -1.509548         2.061022
