19
Iteration:  4252
 O         0.390562         0.118213         0.206042
 C        -0.792393         0.350244         0.839471
 C        -2.169167         0.053689         0.186108
 C        -2.692781         1.315076         0.939419
 C        -2.681356         0.953129         2.494471
 C        -1.559906         2.089087         2.646506
 C        -1.267838         1.913607         1.093082
 O        -2.011160        -0.312124         2.735028
 C        -0.658549        -0.389870         2.123744
 H         0.235171        -0.004312        -0.758605
 H        -2.143628         0.174225        -0.921169
 H        -2.668465        -0.839316         0.387616
 H        -3.594181         1.789021         0.534203
 H        -3.642521         1.174853         2.954617
 H        -2.096273         3.026895         2.763064
 H        -0.784183         2.108842         3.372287
 H        -0.799938         2.715685         0.574192
 H         0.059883        -0.111076         2.964498
 H        -0.663120        -1.466706         1.765208
