19
Iteration:  2076charge 0 multiplicity 1
 O         0.419994         0.183031         0.199471
 C        -0.799536         0.362474         0.870825
 C        -2.147369         0.200368         0.099911
 C        -2.625500         1.319321         0.919019
 C        -2.630346         1.006667         2.488922
 C        -1.466445         2.053865         2.682046
 C        -1.212377         1.819174         1.258238
 O        -2.180165        -0.313917         2.700108
 C        -0.793264        -0.574715         2.074438
 H         0.292450         0.543576        -0.711355
 H        -2.030969         0.570189        -0.924385
 H        -2.450627        -0.820805         0.168355
 H        -3.410590         1.953855         0.562776
 H        -3.549728         1.262144         2.951539
 H        -2.058969         3.037219         2.718122
 H        -0.737700         1.788057         3.491116
 H        -0.574883         2.439652         0.622559
 H         0.014693        -0.500074         2.726110
 H        -1.128926        -1.540635         1.848403
