19
Iteration:  2825charge 0 multiplicity 1
 O         0.421512         0.167371         0.132493
 C        -0.838966         0.344358         0.886185
 C        -2.056585         0.260807         0.023619
 C        -2.657959         1.363862         0.885786
 C        -2.609772         0.980314         2.511721
 C        -1.492297         2.005693         2.647837
 C        -1.175565         1.831087         1.287414
 O        -2.131642        -0.341521         2.866422
 C        -0.938698        -0.568983         2.034051
 H         0.461532         1.043941        -0.307920
 H        -1.704745         0.602884        -1.038283
 H        -2.598231        -0.749703        -0.140844
 H        -3.623158         1.821451         0.645580
 H        -3.622417         1.141317         2.912728
 H        -1.883458         3.006736         2.804424
 H        -0.690748         1.815505         3.394327
 H        -0.721988         2.678651         0.797354
 H         0.026341        -0.661980         2.651916
 H        -0.940601        -1.636187         1.548808
