19
Iteration:  3649charge 0 multiplicity 1
 O         0.454898         0.165482         0.143302
 C        -0.794172         0.367479         0.819339
 C        -2.226427         0.082915         0.122261
 C        -2.646076         1.306353         0.933766
 C        -2.587383         1.002192         2.496247
 C        -1.565900         2.098533         2.687443
 C        -1.241804         1.829427         1.172939
 O        -2.120034        -0.311959         2.702732
 C        -0.779931        -0.424230         2.078515
 H         1.134133         0.002858         0.815360
 H        -2.146435         0.206336        -0.965849
 H        -2.607893        -0.860853         0.548698
 H        -3.568941         1.777882         0.541483
 H        -3.516230         1.160589         3.025842
 H        -2.072572         3.071123         2.750817
 H        -0.941181         1.884066         3.550572
 H        -0.879108         2.563122         0.476210
 H         0.132131        -0.128892         2.588708
 H        -0.689421        -1.595437         1.959055
