19
Iteration:   325
 O         0.520571         0.080934         0.277561
 C        -0.735765         0.387278         0.752821
 C        -2.183799         0.291392        -0.040973
 C        -2.579931         1.308790         0.997948
 C        -2.595926         0.978072         2.548150
 C        -1.508213         2.033007         2.810516
 C        -1.220222         1.920728         1.213345
 O        -2.178080        -0.351536         2.733448
 C        -0.978561        -0.588764         1.935870
 H         0.967917         0.969052         0.344074
 H        -2.162729         0.716165        -1.060213
 H        -2.695932        -0.604804        -0.003615
 H        -3.457297         2.066550         0.684443
 H        -3.543618         1.122504         2.989217
 H        -1.952332         3.005044         3.086854
 H        -0.736330         1.688719         3.406367
 H        -0.914896         2.687199         0.394169
 H        -0.126024        -0.829947         2.521813
 H        -1.123339        -1.577737         1.415287
