19
Iteration:  3566
 O         0.526008         0.104974         0.094927
 C        -0.744308         0.352596         0.818751
 C        -2.233937         0.031532         0.165178
 C        -2.586448         1.347098         0.958546
 C        -2.682086         1.011060         2.500963
 C        -1.644214         2.094329         2.695483
 C        -1.182039         1.800863         1.205722
 O        -2.082670        -0.237549         2.736204
 C        -0.862357        -0.492006         2.080858
 H         1.037383         0.897187        -0.170056
 H        -2.411309         0.308746        -0.920835
 H        -2.555131        -0.989555         0.227975
 H        -3.382774         1.905174         0.460274
 H        -3.636947         0.864181         3.146613
 H        -2.123570         3.126215         2.624746
 H        -1.052452         2.157712         3.661167
 H        -0.739914         2.715200         0.648752
 H        -0.017109        -0.207539         2.592866
 H        -0.879030        -1.520657         1.885715
