19
Iteration:   835
 O         0.435668         0.262675         0.144009
 C        -0.802267         0.321393         0.905211
 C        -2.154608         0.316285         0.058378
 C        -2.624924         1.467086         0.930952
 C        -2.629027         1.023961         2.495255
 C        -1.508736         1.954629         2.770462
 C        -1.137051         1.829973         1.268593
 O        -2.157567        -0.371281         2.637868
 C        -0.907155        -0.645401         2.018154
 H         0.803832        -0.637350         0.350179
 H        -1.929360         0.695953        -0.930710
 H        -2.530727        -0.737420        -0.181511
 H        -3.431651         2.127878         0.578131
 H        -3.495043         0.979567         3.232262
 H        -1.968879         2.887598         2.933110
 H        -0.824949         1.810116         3.594185
 H        -0.696775         2.646391         0.696331
 H        -0.123746        -0.638573         2.711587
 H        -0.985743        -1.717153         1.699242
