19
Iteration:  2373
 O         0.537947         0.147668         0.262406
 C        -0.805971         0.398933         0.767718
 C        -2.048695         0.258277         0.000700
 C        -2.715573         1.319317         1.004880
 C        -2.649678         0.999206         2.594543
 C        -1.481660         2.062521         2.688534
 C        -1.212206         1.790651         1.162245
 O        -2.122567        -0.275798         2.841201
 C        -0.993351        -0.623223         1.965489
 H         0.562391         0.108783        -0.700443
 H        -1.954259         0.769928        -0.976110
 H        -2.425127        -0.771717         0.086347
 H        -3.377772         2.066933         0.553952
 H        -3.541221         0.948191         3.137312
 H        -2.024385         3.064828         2.707136
 H        -0.668365         1.877745         3.408927
 H        -0.920330         2.522195         0.408565
 H        -0.079834        -0.572359         2.583784
 H        -1.224872        -1.545901         1.499068
