19
Iteration:  2637charge 0 multiplicity 1
 O         0.482738         0.155704         0.230156
 C        -0.843082         0.359935         0.822699
 C        -2.197264         0.204655         0.036461
 C        -2.667674         1.339241         0.906551
 C        -2.622341         1.000365         2.547572
 C        -1.420844         2.024805         2.664474
 C        -1.255158         1.806240         1.197711
 O        -2.120926        -0.373292         2.732083
 C        -0.924374        -0.500749         2.059992
 H         0.823001         1.063999         0.126011
 H        -1.996518         0.666072        -0.990047
 H        -2.616324        -0.847514        -0.005372
 H        -3.429625         2.122294         0.644487
 H        -3.553943         1.033792         3.155737
 H        -1.874271         2.977764         2.836484
 H        -0.555222         1.895568         3.340169
 H        -0.603787         2.417596         0.568577
 H        -0.082675        -0.217578         2.709352
 H        -0.632834        -1.566660         1.955256
