19
Iteration:  1972
 O         0.491838         0.258507         0.318505
 C        -0.777068         0.357047         0.807099
 C        -2.124602         0.201199        -0.003809
 C        -2.711135         1.241473         0.989147
 C        -2.615505         1.049902         2.524750
 C        -1.445792         2.003141         2.732961
 C        -1.226511         1.808791         1.134271
 O        -2.157383        -0.273029         2.814459
 C        -0.916191        -0.632239         1.937652
 H         0.449454         0.629625        -0.592850
 H        -2.056781         0.679635        -1.007373
 H        -2.550238        -0.871209        -0.101922
 H        -3.424918         2.034461         0.504567
 H        -3.600788         1.370094         3.091150
 H        -1.522481         3.091792         2.989326
 H        -0.609108         1.772670         3.403245
 H        -0.934114         2.595933         0.402331
 H        -0.139491        -0.804225         2.654924
 H        -1.057140        -1.731850         1.638413
