19
Iteration:  4905
 O         0.383988         0.130805         0.042653
 C        -0.807430         0.255780         0.786710
 C        -2.066425         0.133178        -0.002926
 C        -2.707814         1.258026         1.010336
 C        -2.660584         0.995632         2.574543
 C        -1.603342         2.199854         2.681965
 C        -1.215347         1.848991         1.194864
 O        -2.082348        -0.302530         2.784527
 C        -0.786375        -0.418341         2.126439
 H         1.063964        -0.310629         0.585656
 H        -1.968120         0.588288        -0.991313
 H        -2.574938        -0.869596         0.083306
 H        -3.551100         1.652572         0.538926
 H        -3.603326         0.880866         3.156003
 H        -2.026634         3.234056         2.689750
 H        -0.850969         2.096554         3.435258
 H        -0.754412         2.489881         0.450537
 H         0.016892         0.072374         2.727782
 H        -0.312463        -1.477326         2.182375
