19
Iteration:  2175charge 0 multiplicity 1
 O         0.416555         0.131863         0.079807
 C        -0.791525         0.307296         0.808155
 C        -2.117996         0.129095         0.179473
 C        -2.545120         1.415769         0.930143
 C        -2.700413         0.976097         2.516988
 C        -1.583902         2.028456         2.718295
 C        -1.084618         1.783971         1.256013
 O        -2.206227        -0.316041         2.666153
 C        -0.803814        -0.469769         2.105840
 H         0.356643         0.826422        -0.616074
 H        -2.299674         0.300329        -0.914300
 H        -2.691442        -0.801172         0.365585
 H        -3.333140         2.107244         0.541223
 H        -3.748042         0.959144         2.835921
 H        -2.010511         3.213399         2.759624
 H        -0.716850         2.063472         3.544477
 H        -0.477796         2.618664         0.860585
 H        -0.223442         0.057785         2.996612
 H        -0.588105        -1.572692         2.070163
