19
Iteration:  4480charge 0 multiplicity 1
 O         0.525628         0.165534         0.105622
 C        -0.781713         0.334703         0.781134
 C        -2.187218         0.031081         0.071612
 C        -2.731610         1.242141         0.941876
 C        -2.634753         1.067421         2.560637
 C        -1.543229         2.104769         2.693888
 C        -1.357899         1.812230         1.103198
 O        -2.029412        -0.299219         2.789341
 C        -0.764276        -0.338418         2.148858
 H         0.593349        -0.791630        -0.049987
 H        -1.957608         0.403728        -0.993745
 H        -2.799745        -0.876062         0.174635
 H        -3.580714         1.837281         0.605744
 H        -3.585651         0.993373         3.136137
 H        -2.000340         3.145259         2.807159
 H        -0.828200         1.866614         3.480352
 H        -0.998511         2.610447         0.516784
 H        -0.214897         0.153938         2.826639
 H        -0.449672        -1.361036         2.121426
