19
Iteration:   845charge 0 multiplicity 1
 O         0.406437         0.342502         0.178251
 C        -0.818494         0.340458         0.844386
 C        -2.113222         0.290153         0.035774
 C        -2.562727         1.386870         1.014886
 C        -2.625586         0.918721         2.520552
 C        -1.440618         1.997967         2.711391
 C        -1.124581         1.808947         1.253145
 O        -2.238793        -0.370402         2.619820
 C        -0.950974        -0.608117         2.088866
 H         0.928704        -0.486201         0.172651
 H        -1.859226         0.625834        -0.975073
 H        -2.861183        -0.601727         0.036522
 H        -3.323122         2.195573         0.703768
 H        -3.636533         1.090153         3.064652
 H        -1.865774         2.929303         2.898398
 H        -0.629561         1.698827         3.320728
 H        -0.512351         2.411021         0.601526
 H        -0.173123        -0.550377         2.795077
 H        -1.017638        -1.592493         1.545425
