19
Iteration:  3553
 O         0.488284         0.049758         0.108596
 C        -0.773530         0.365387         0.778156
 C        -2.097273         0.050574         0.142345
 C        -2.707203         1.249819         0.993253
 C        -2.662460         1.040410         2.497874
 C        -1.596511         2.161102         2.713575
 C        -1.205333         1.880041         1.229032
 O        -2.138764        -0.290453         2.659641
 C        -0.791210        -0.471304         2.110271
 H         0.686063         0.897015        -0.321411
 H        -1.997858         0.159531        -0.966315
 H        -2.596407        -0.817925         0.564788
 H        -3.479297         1.968731         0.750361
 H        -3.694204         1.156688         2.975361
 H        -2.072423         3.141413         2.829525
 H        -0.826621         1.911390         3.442313
 H        -0.668613         2.726565         0.667925
 H        -0.110378        -0.279039         2.902682
 H        -0.725805        -1.447196         1.845544
