19
Iteration:  2805charge 0 multiplicity 1
 O         0.495970         0.271156         0.283619
 C        -0.781382         0.324038         0.768418
 C        -2.185006         0.217399         0.004626
 C        -2.656666         1.337902         0.976849
 C        -2.579912         1.008807         2.508986
 C        -1.440086         2.084107         2.701065
 C        -1.247323         1.808695         1.134815
 O        -2.133118        -0.323194         2.767531
 C        -0.965057        -0.700404         2.044014
 H         0.725959         1.042034        -0.279168
 H        -2.321249         0.501322        -1.056990
 H        -2.688044        -0.787967        -0.134087
 H        -3.278166         2.140945         0.687653
 H        -3.465188         1.121965         3.161409
 H        -1.804382         2.952693         3.125989
 H        -0.785783         1.756686         3.481837
 H        -0.713648         2.477849         0.508119
 H        -0.090165        -0.720298         2.811497
 H        -1.015407        -1.733276         1.775198
