19
Iteration:  4928
 O         0.402589         0.023069         0.044519
 C        -0.752322         0.425639         0.813666
 C        -2.204224         0.143399         0.168862
 C        -2.706724         1.310930         0.939333
 C        -2.626525         0.975722         2.509827
 C        -1.576960         2.014650         2.649951
 C        -1.224337         1.923619         1.145800
 O        -2.102509        -0.346038         2.691707
 C        -0.718917        -0.307586         2.221286
 H         1.081607        -0.266166         0.665477
 H        -2.119226         0.390578        -0.931042
 H        -2.471435        -0.894234         0.406132
 H        -3.510227         1.943235         0.521680
 H        -3.633239         0.875565         3.084894
 H        -2.223354         2.914101         2.815765
 H        -0.850972         1.950200         3.432328
 H        -1.059265         2.702727         0.429984
 H         0.048804        -0.054105         2.981766
 H        -0.243608        -1.345256         1.979955
