19
Iteration:  3520charge 0 multiplicity 1
 O         0.409032         0.150319         0.245577
 C        -0.784939         0.344350         0.872345
 C        -2.140950         0.211576        -0.007092
 C        -2.721984         1.293739         0.951297
 C        -2.595159         0.927646         2.468729
 C        -1.517018         1.992843         2.562717
 C        -1.209138         1.913286         1.133414
 O        -2.129144        -0.375561         2.780138
 C        -0.785834        -0.400828         2.246591
 H         0.299467         0.083868        -0.729699
 H        -1.948696         0.463286        -1.115379
 H        -2.624675        -0.795279        -0.121843
 H        -3.531718         2.004505         0.839274
 H        -3.588288         1.161561         2.956587
 H        -1.823212         2.999155         2.876189
 H        -0.668953         1.941972         3.266227
 H        -0.675025         2.672729         0.473319
 H        -0.107666        -0.074839         2.970560
 H        -0.646867        -1.363532         2.006705
