19
Iteration:  4940
 O         0.303169         0.067892         0.098133
 C        -0.782942         0.409501         0.856377
 C        -2.064906         0.092057         0.162855
 C        -2.714494         1.365966         0.933197
 C        -2.653946         0.951242         2.487910
 C        -1.579680         2.070251         2.671248
 C        -1.234614         1.967486         1.092147
 O        -2.063557        -0.377056         2.688762
 C        -0.696384        -0.405011         2.155708
 H         1.091550         0.017874         0.668252
 H        -2.194171        -0.004977        -0.966622
 H        -2.622407        -0.732826         0.541536
 H        -3.624875         1.719191         0.380865
 H        -3.518416         1.127385         3.275381
 H        -1.934186         3.082960         2.941513
 H        -0.825246         1.793114         3.410067
 H        -0.710709         2.763099         0.555714
 H        -0.068431         0.162758         2.867972
 H        -0.603751        -1.515442         1.971895
