19
Iteration:  3057
 O         0.502690         0.264313         0.164116
 C        -0.763559         0.334973         0.789283
 C        -2.074654         0.277322         0.027880
 C        -2.615736         1.311184         0.953360
 C        -2.627159         0.969838         2.570614
 C        -1.530982         2.110246         2.719401
 C        -1.247851         1.799082         1.249405
 O        -2.131705        -0.327280         2.761228
 C        -0.997498        -0.601993         1.996689
 H         0.675502        -0.659456        -0.048738
 H        -1.934577         0.586666        -1.043389
 H        -2.518326        -0.750972         0.128867
 H        -3.548470         1.896710         0.731611
 H        -3.640075         0.982246         3.042821
 H        -2.019490         3.089617         2.653906
 H        -0.788218         2.154813         3.573109
 H        -0.726690         2.514211         0.627737
 H        -0.138949        -0.528167         2.649578
 H        -0.901951        -1.791455         1.762715
