19
Iteration:   194charge 0 multiplicity 1
 O         0.497723         0.262234         0.251685
 C        -0.847264         0.378757         0.724807
 C        -2.069713         0.371939        -0.036131
 C        -2.597664         1.423236         1.007206
 C        -2.667885         0.918816         2.534590
 C        -1.480744         1.883032         2.672204
 C        -1.188292         1.812456         1.271917
 O        -2.164129        -0.371677         2.830218
 C        -1.005986        -0.567107         1.954726
 H         0.726214        -0.647432        -0.010214
 H        -1.935874         0.727773        -1.143438
 H        -2.526402        -0.567478        -0.054788
 H        -3.352743         2.208130         0.614178
 H        -3.552384         1.073876         3.097336
 H        -1.757263         2.955520         3.002357
 H        -0.706394         1.626961         3.426502
 H        -0.682619         2.626939         0.671825
 H        -0.107218        -0.335644         2.500036
 H        -1.051729        -1.680721         1.602176
