19
Iteration:     8
 O         0.414579         0.165202         0.114038
 C        -0.788286         0.387478         0.828566
 C        -2.164501         0.259662        -0.012749
 C        -2.575599         1.404709         0.931402
 C        -2.630847         0.991684         2.554839
 C        -1.499426         1.959158         2.794077
 C        -1.176609         1.871578         1.269507
 O        -2.236367        -0.405825         2.675846
 C        -0.821336        -0.535655         2.005459
 H         1.101390         0.426882         0.753287
 H        -2.208256         0.742793        -1.124822
 H        -2.623333        -0.728835        -0.010241
 H        -3.380735         2.015350         0.618596
 H        -3.532384         1.133383         3.128100
 H        -1.873825         2.946462         3.228543
 H        -0.805037         1.592057         3.591867
 H        -0.649820         2.716228         0.746243
 H         0.023075        -0.587248         2.910634
 H        -0.925523        -1.586814         1.617994
