19
Iteration:  2108charge 0 multiplicity 1
 O         0.566565         0.119846         0.342587
 C        -0.840964         0.369542         0.717933
 C        -2.200424         0.250838        -0.016680
 C        -2.679289         1.260417         0.978110
 C        -2.555815         0.952595         2.533044
 C        -1.453798         2.058257         2.662933
 C        -1.273682         1.919471         1.180832
 O        -2.146571        -0.298146         2.813447
 C        -0.917073        -0.574128         2.012472
 H         0.629515         0.393842        -0.573942
 H        -2.297368         0.630350        -1.052297
 H        -2.560937        -0.758404        -0.145645
 H        -3.572798         1.737974         0.682512
 H        -3.464016         1.175675         3.032345
 H        -1.975674         3.121462         2.947194
 H        -0.599939         2.113704         3.409756
 H        -0.685083         2.639128         0.646288
 H         0.034420        -0.508308         2.519719
 H        -1.069360        -1.653518         1.786315
