19
Iteration:  2926charge 0 multiplicity 1
 O         0.517582         0.269510         0.190818
 C        -0.734407         0.311256         0.821606
 C        -2.123673         0.208768        -0.004507
 C        -2.653113         1.296998         0.992911
 C        -2.651726         1.056674         2.540812
 C        -1.519325         2.024146         2.684180
 C        -1.199770         1.753589         1.234790
 O        -2.125863        -0.296775         2.801900
 C        -0.986392        -0.632603         2.025064
 H         0.642864         1.036237        -0.379168
 H        -2.118541         0.595709        -1.089506
 H        -2.831276        -0.656886        -0.245169
 H        -3.327181         2.080940         0.769455
 H        -3.551124         1.089059         3.163819
 H        -1.656565         3.066608         2.653269
 H        -0.874861         1.815041         3.549293
 H        -0.781697         2.429075         0.541795
 H         0.002188        -0.736895         2.616303
 H        -1.243488        -1.624742         1.568991
