19
Iteration:    52charge 0 multiplicity 1
 O         0.430895         0.232743         0.294924
 C        -0.808214         0.366929         0.886692
 C        -2.143923         0.289049         0.024653
 C        -2.653067         1.356282         1.014240
 C        -2.582354         1.005180         2.560809
 C        -1.422761         1.997399         2.710645
 C        -1.139827         1.823693         1.215150
 O        -2.262801        -0.412506         2.594265
 C        -0.882046        -0.655431         1.971158
 H         0.553951         0.904721        -0.403049
 H        -1.870827         0.969524        -0.951683
 H        -2.685415        -0.599783        -0.280823
 H        -3.400537         2.044420         0.681365
 H        -3.448722         1.153288         3.169423
 H        -1.810907         3.043121         2.993083
 H        -0.652271         1.873600         3.508445
 H        -0.644063         2.605974         0.564645
 H        -0.090923        -0.725598         2.868209
 H        -0.955029        -1.711960         1.588341
