19
Iteration:  4121charge 0 multiplicity 1
 O         0.418069         0.344384         0.002365
 C        -0.778206         0.322301         0.798768
 C        -2.143717         0.045944         0.115837
 C        -2.661944         1.256346         0.938364
 C        -2.658285         0.981328         2.537946
 C        -1.569282         2.117836         2.654534
 C        -1.185258         1.711247         1.093875
 O        -2.100059        -0.233309         2.849253
 C        -0.774669        -0.473697         2.204945
 H         0.765082        -0.580296        -0.068372
 H        -2.122768         0.379535        -0.999495
 H        -2.684774        -0.837650         0.386046
 H        -3.496873         1.839728         0.577635
 H        -3.623543         1.093862         3.073519
 H        -2.016783         3.157675         2.735596
 H        -0.971997         1.831345         3.581781
 H        -0.749317         2.429146         0.395983
 H        -0.002806        -0.146580         2.888371
 H        -0.822262        -1.583093         2.228936
