19
Iteration:   488
 O         0.443820         0.245281         0.202229
 C        -0.786197         0.433631         0.844321
 C        -2.128282         0.188617         0.074850
 C        -2.588175         1.440445         0.931215
 C        -2.676563         0.970996         2.495381
 C        -1.474477         1.959407         2.762278
 C        -1.134851         1.883265         1.226518
 O        -2.170129        -0.375323         2.669592
 C        -0.927849        -0.548095         2.038821
 H         0.448287        -0.675318        -0.092083
 H        -2.159726         0.280534        -1.103243
 H        -2.684590        -0.747856         0.381640
 H        -3.385191         2.136293         0.643605
 H        -3.648063         1.039531         2.892776
 H        -1.875051         3.006588         2.906919
 H        -0.731700         1.581183         3.478658
 H        -0.588307         2.638558         0.554702
 H        -0.117499        -0.644947         2.791713
 H        -0.935712        -1.576304         1.677662
