19
Iteration:  3222charge 0 multiplicity 1
 O         0.482364         0.159366         0.283248
 C        -0.795182         0.360285         0.755155
 C        -2.091175         0.140121         0.094777
 C        -2.658683         1.386500         1.007972
 C        -2.623748         1.022726         2.540148
 C        -1.502865         2.075038         2.679211
 C        -1.154484         1.892590         1.178506
 O        -2.211599        -0.420878         2.663932
 C        -0.917410        -0.564086         2.037785
 H         0.667014         0.736254        -0.479212
 H        -2.033029         0.525544        -0.905326
 H        -2.590522        -0.750374         0.208106
 H        -3.629026         1.840168         0.609842
 H        -3.510482         1.224127         3.172450
 H        -1.809681         3.132344         2.808178
 H        -0.772600         1.937090         3.518855
 H        -0.797540         2.728000         0.547358
 H        -0.124695        -0.532707         2.821626
 H        -0.706986        -1.535483         1.585548
