19
Iteration:  3826
 O         0.404950         0.115252         0.087149
 C        -0.808758         0.331572         0.879027
 C        -2.143872         0.147177         0.145075
 C        -2.704870         1.290166         0.915539
 C        -2.636497         0.976933         2.489644
 C        -1.665663         2.138494         2.626661
 C        -1.194392         1.919091         1.220347
 O        -2.048071        -0.373568         2.728051
 C        -0.699251        -0.387869         2.134358
 H         0.740564        -0.698477         0.505621
 H        -2.081960         0.257851        -0.983600
 H        -2.607400        -0.797059         0.140440
 H        -3.518912         1.946268         0.629026
 H        -3.464637         1.051124         3.277466
 H        -2.321985         3.044182         2.602518
 H        -0.956608         2.164267         3.480378
 H        -0.835502         2.593561         0.439043
 H         0.155112         0.023176         2.759761
 H        -0.475295        -1.550733         1.736376
