19
Iteration:    74
 O         0.478127         0.138571         0.140538
 C        -0.803845         0.323277         0.809859
 C        -2.050007         0.389357         0.003471
 C        -2.553938         1.462644         0.962003
 C        -2.619957         0.888547         2.502749
 C        -1.556746         2.080459         2.810559
 C        -1.188067         1.897121         1.346962
 O        -2.183883        -0.455129         2.672829
 C        -0.974347        -0.603001         2.054657
 H         0.295984        -0.009530        -0.803294
 H        -2.116527         0.746993        -1.153231
 H        -2.598345        -0.524581         0.160873
 H        -3.415639         2.072396         0.738327
 H        -3.561903         0.898958         2.993563
 H        -2.085383         3.084524         3.067309
 H        -0.709903         2.090768         3.544129
 H        -0.526977         2.575781         0.725588
 H         0.030260        -0.554004         2.644248
 H        -0.951772        -1.694805         1.750018
