19
Iteration:  2944
 O         0.502151         0.192884         0.303790
 C        -0.852040         0.289287         0.767966
 C        -2.213079         0.266322         0.009330
 C        -2.654299         1.334673         0.958855
 C        -2.604655         0.929211         2.508527
 C        -1.475392         2.137545         2.700479
 C        -1.178349         1.833177         1.199390
 O        -2.084450        -0.292462         2.818831
 C        -0.958220        -0.672814         1.912491
 H         0.774960         1.081055         0.038565
 H        -2.130967         0.519328        -1.026801
 H        -2.480103        -0.765318         0.021545
 H        -3.495309         1.930932         0.535698
 H        -3.551587         1.024477         3.050285
 H        -2.135378         3.021748         2.948192
 H        -0.719057         2.093055         3.554070
 H        -0.588614         2.653508         0.692228
 H        -0.078376        -0.716419         2.464469
 H        -0.941808        -1.774986         1.642675
