19
Iteration:  2531
 O         0.543645         0.219435         0.357165
 C        -0.813213         0.399675         0.804350
 C        -2.187759         0.158193         0.095523
 C        -2.657901         1.312308         0.964036
 C        -2.546457         0.975134         2.495418
 C        -1.416478         2.032428         2.622515
 C        -1.230647         1.896860         1.154765
 O        -2.191712        -0.373913         2.728898
 C        -0.981116        -0.550914         1.999694
 H         0.485676         0.316112        -0.604571
 H        -2.041483         0.500898        -0.924275
 H        -2.663467        -0.827836         0.041102
 H        -3.511163         1.998931         0.746254
 H        -3.359999         1.044694         3.302912
 H        -1.788650         3.019376         2.965091
 H        -0.471872         1.781342         3.257844
 H        -0.914497         2.687637         0.459910
 H        -0.167661        -0.353070         2.706576
 H        -1.090119        -1.495734         1.605913
