19
Iteration:  2399charge 0 multiplicity 1
 O         0.462119         0.254370         0.290473
 C        -0.871110         0.336850         0.845352
 C        -2.161331         0.250177        -0.037943
 C        -2.634133         1.271201         0.916338
 C        -2.542836         1.054199         2.464145
 C        -1.448818         2.053394         2.691919
 C        -1.193924         1.836031         1.199169
 O        -2.109488        -0.313581         2.791334
 C        -0.977743        -0.694506         2.090998
 H         0.421669         0.499792        -0.637909
 H        -2.053075         0.689873        -0.987920
 H        -2.792181        -0.610036         0.048577
 H        -3.389199         1.963359         0.484099
 H        -3.538328         0.959123         3.025005
 H        -1.911023         3.032982         2.805274
 H        -0.583109         1.787336         3.381761
 H        -0.735873         2.556365         0.482579
 H        -0.057997        -0.509514         2.785041
 H        -0.938985        -1.822824         1.836478
