19
Iteration:  2239charge 0 multiplicity 1
 O         0.514351         0.093433         0.336289
 C        -0.738567         0.390752         0.768550
 C        -2.233955         0.187294        -0.161819
 C        -2.739223         1.349081         0.966313
 C        -2.581238         0.967252         2.654778
 C        -1.460160         2.075336         2.695530
 C        -1.206057         1.865157         1.118441
 O        -2.114406        -0.322850         2.802921
 C        -0.947890        -0.538437         2.071049
 H         0.725399         0.325986        -0.570562
 H        -2.098025         0.935124        -1.029804
 H        -2.551336        -0.870261        -0.346518
 H        -3.628589         1.896769         0.688427
 H        -3.522433         0.965809         3.209340
 H        -2.110650         3.008608         2.751420
 H        -0.674039         1.923582         3.463273
 H        -0.703713         2.637267         0.518283
 H         0.016461        -0.279968         2.703704
 H        -0.862341        -1.547959         1.605072
