19
Iteration:  2907charge 0 multiplicity 1
 O         0.461168         0.187032         0.133716
 C        -0.797420         0.371804         0.844993
 C        -2.070332         0.199429         0.047202
 C        -2.656099         1.350051         0.927278
 C        -2.633964         0.992382         2.500020
 C        -1.469363         2.022724         2.767521
 C        -1.196830         1.859887         1.243731
 O        -2.202664        -0.327545         2.752810
 C        -0.887797        -0.625180         2.076098
 H         0.341814         0.673069        -0.690832
 H        -1.968229         0.717529        -0.949131
 H        -2.471658        -0.837796        -0.082185
 H        -3.543771         1.911499         0.536697
 H        -3.606791         1.142403         3.000077
 H        -1.937205         2.977049         3.117368
 H        -0.570120         1.736259         3.312847
 H        -0.629525         2.602620         0.593697
 H        -0.153740        -0.198072         2.840939
 H        -0.951939        -1.647239         1.820752
