19
Iteration:   115charge 0 multiplicity 1
 O         0.397389         0.137089         0.056562
 C        -0.753308         0.302916         0.788952
 C        -2.074222         0.384965        -0.007823
 C        -2.573857         1.438168         0.955652
 C        -2.694164         0.963150         2.503489
 C        -1.559334         1.941254         2.904191
 C        -1.194883         1.853975         1.367093
 O        -2.173560        -0.316126         2.593081
 C        -0.847735        -0.539102         2.086753
 H         0.539509        -0.775573        -0.206949
 H        -1.845317         0.658250        -0.997080
 H        -2.635227        -0.529837         0.133750
 H        -3.429659         2.162780         0.569409
 H        -3.744268         0.942340         2.904861
 H        -1.935634         2.907741         3.283798
 H        -0.832457         1.462366         3.570003
 H        -0.513945         2.598247         0.879254
 H        -0.136525        -0.181719         2.761712
 H        -0.577656        -1.631891         2.080120
