19
Iteration:   784
 O         0.415510         0.102498         0.076372
 C        -0.806138         0.346455         0.828828
 C        -2.066619         0.434273        -0.026533
 C        -2.656852         1.411513         0.976872
 C        -2.678856         0.962916         2.496011
 C        -1.530828         2.004715         2.787196
 C        -1.125312         1.860248         1.312398
 O        -2.218066        -0.448690         2.689381
 C        -0.839313        -0.507123         2.054919
 H         0.656858        -0.787137         0.391408
 H        -1.808778         0.872007        -1.010337
 H        -2.510725        -0.547050        -0.120019
 H        -3.489624         1.968162         0.685400
 H        -3.557161         0.986595         3.037122
 H        -1.922062         3.068720         2.994970
 H        -0.824415         1.891177         3.674714
 H        -0.461322         2.624339         0.830164
 H        -0.038043        -0.263428         2.846829
 H        -0.660662        -1.545362         1.814829
