19
Iteration:  1599charge 0 multiplicity 1
 O         0.417211         0.035026         0.168767
 C        -0.750930         0.348762         0.827654
 C        -2.101333         0.176388         0.155215
 C        -2.605685         1.384262         0.992821
 C        -2.677676         1.013848         2.512962
 C        -1.524119         2.043787         2.704215
 C        -1.218583         1.916756         1.201019
 O        -2.173945        -0.383164         2.619999
 C        -0.831972        -0.454507         2.072220
 H         0.625994         0.676518        -0.535288
 H        -1.891741         0.533074        -0.840276
 H        -2.612855        -0.764303         0.193073
 H        -3.531981         1.877019         0.623209
 H        -3.611026         1.039226         3.011736
 H        -2.039962         3.042996         2.914859
 H        -0.665025         1.658589         3.430365
 H        -0.799488         2.717371         0.659510
 H        -0.136307         0.007441         2.876598
 H        -0.604875        -1.491620         2.012081
