19
Iteration:  1832
 O         0.550311         0.265254         0.312347
 C        -0.780276         0.356522         0.756320
 C        -2.123626         0.239934         0.084069
 C        -2.733350         1.279012         1.056121
 C        -2.594468         1.070150         2.498280
 C        -1.375951         2.041902         2.657600
 C        -1.246350         1.843295         1.156935
 O        -2.244004        -0.382628         2.743260
 C        -0.974867        -0.602304         1.986302
 H         0.658894         0.074679        -0.629928
 H        -2.085192         0.531451        -0.947648
 H        -2.512404        -0.805198         0.180557
 H        -3.680615         1.792157         0.766530
 H        -3.436415         1.231991         3.244647
 H        -1.621428         3.210528         2.808737
 H        -0.526149         1.839099         3.357675
 H        -0.838901         2.384799         0.309295
 H        -0.009504        -0.636374         2.666435
 H        -0.803064        -1.597263         1.576938
