19
Iteration:  2880
 O         0.400080        -0.000315         0.216658
 C        -0.813660         0.442339         0.818798
 C        -2.130415         0.293025         0.136341
 C        -2.632458         1.467226         0.969219
 C        -2.657044         0.926025         2.516900
 C        -1.566010         1.983996         2.767054
 C        -1.113001         1.919356         1.194752
 O        -2.133789        -0.435584         2.555105
 C        -0.786515        -0.439216         2.108237
 H         0.364165         0.142615        -0.737021
 H        -2.224969         0.466201        -0.981862
 H        -2.567554        -0.758791         0.232415
 H        -3.495812         1.990247         0.597392
 H        -3.632913         0.877509         3.009692
 H        -2.042198         2.907068         3.051942
 H        -0.755598         1.836707         3.531430
 H        -0.777629         2.709502         0.537918
 H        -0.197172         0.143274         2.829709
 H        -0.436478        -1.572711         2.005577
