19
Iteration:  1045charge 0 multiplicity 1
 O         0.409459         0.056675         0.144444
 C        -0.785259         0.457010         0.820550
 C        -2.034517         0.337072         0.005675
 C        -2.628558         1.390751         0.954848
 C        -2.677024         0.890056         2.452304
 C        -1.569697         1.953707         2.719079
 C        -1.155297         1.879479         1.274937
 O        -2.107148        -0.276461         2.853959
 C        -0.879433        -0.585676         2.095857
 H         0.244038         0.293181        -0.794695
 H        -1.904084         0.597094        -1.073181
 H        -2.619772        -0.640098        -0.086192
 H        -3.514036         1.879395         0.615988
 H        -3.622919         0.895198         2.945300
 H        -2.116947         2.840740         2.812292
 H        -0.927975         1.880624         3.558395
 H        -0.703194         2.690158         0.560460
 H         0.052046        -0.395866         2.669932
 H        -0.859439        -1.507711         1.512176
