19
Iteration:  2891charge 0 multiplicity 1
 O         0.379815         0.070120         0.196663
 C        -0.766059         0.416140         0.862554
 C        -2.145147         0.236441         0.050446
 C        -2.599682         1.358437         0.957140
 C        -2.613256         0.925526         2.455644
 C        -1.472345         1.999375         2.737416
 C        -1.196230         1.924891         1.231076
 O        -2.177070        -0.431103         2.622949
 C        -0.844922        -0.388461         2.138745
 H         0.230069         0.311559        -0.726598
 H        -1.867706         0.505062        -0.986106
 H        -2.735537        -0.696320         0.262776
 H        -3.384483         2.056340         0.734317
 H        -3.522881         1.052952         3.044728
 H        -1.921913         2.958882         2.912715
 H        -0.834481         1.691025         3.593176
 H        -0.742790         2.813764         0.841102
 H        -0.056153        -0.283403         2.908744
 H        -0.653957        -1.422693         1.665603
