19
Iteration:  2680
 O         0.451045         0.166548         0.300637
 C        -0.800741         0.349843         0.830852
 C        -2.103015         0.204952         0.116710
 C        -2.691533         1.353865         0.933608
 C        -2.608134         0.933025         2.531914
 C        -1.415537         2.062944         2.669169
 C        -1.214090         1.845949         1.185697
 O        -2.173370        -0.334416         2.706046
 C        -0.894746        -0.510874         2.008971
 H         0.407928         0.640713        -0.541533
 H        -1.990080         0.616683        -0.891788
 H        -2.673859        -0.709105         0.261120
 H        -3.559116         1.825844         0.395685
 H        -3.546655         0.970269         3.084823
 H        -1.851990         3.005556         2.921193
 H        -0.535904         1.805956         3.222286
 H        -0.873589         2.644058         0.503399
 H        -0.017014        -0.553883         2.643688
 H        -0.964660        -1.552080         1.542234
