19
Iteration:  3642
 O         0.498843         0.148350         0.125571
 C        -0.772848         0.369105         0.738067
 C        -2.178818         0.073589         0.140572
 C        -2.685496         1.254292         0.956326
 C        -2.648347         1.002014         2.530307
 C        -1.525587         2.096212         2.682864
 C        -1.229078         1.851995         1.117632
 O        -2.130892        -0.305760         2.726306
 C        -0.846524        -0.437136         2.107844
 H         1.086047         0.198699         0.911447
 H        -2.246756         0.382432        -0.978456
 H        -2.639533        -0.868945         0.473097
 H        -3.381423         1.902548         0.418501
 H        -3.568033         0.983894         3.236738
 H        -2.084838         2.971729         3.035451
 H        -0.730821         1.977713         3.436673
 H        -0.913952         2.764340         0.503431
 H         0.077718        -0.026847         2.826943
 H        -0.742826        -1.404458         1.774018
