19
Iteration:  4100charge 0 multiplicity 1
 O         0.268457         0.258639         0.032404
 C        -0.772143         0.364658         0.921508
 C        -2.126691         0.000042         0.215171
 C        -2.619123         1.305417         0.827357
 C        -2.648503         1.015708         2.404077
 C        -1.601005         2.135596         2.611917
 C        -1.219836         1.848569         1.212870
 O        -2.012136        -0.335855         2.794566
 C        -0.740916        -0.469696         2.198395
 H         0.673217        -0.608853         0.055274
 H        -2.153073         0.215341        -0.920516
 H        -2.735895        -0.845574         0.478231
 H        -3.419773         1.976251         0.521581
 H        -3.602230         1.180494         2.927894
 H        -2.251542         3.034435         2.846936
 H        -0.804349         1.903815         3.403097
 H        -0.501739         2.588549         0.787781
 H         0.158818        -0.223591         2.588010
 H        -0.624364        -1.496207         1.942593
