19
Iteration:  3473charge 0 multiplicity 1
 O         0.456915         0.239425         0.104516
 C        -0.771623         0.450920         0.847306
 C        -2.084811         0.173536         0.130346
 C        -2.664030         1.264247         0.944531
 C        -2.629839         1.010060         2.474033
 C        -1.578191         2.146722         2.669385
 C        -1.209242         1.832424         1.178252
 O        -2.075599        -0.288273         2.795310
 C        -0.895898        -0.672453         2.044540
 H         0.743347        -0.552759         0.571234
 H        -2.187579         0.373191        -0.923543
 H        -2.609289        -0.833771         0.234821
 H        -3.545003         1.779526         0.534053
 H        -3.540752         1.125451         2.973992
 H        -2.040448         3.076773         2.818513
 H        -0.955253         2.099607         3.518282
 H        -0.685668         2.474864         0.534645
 H        -0.146667        -0.702625         2.820516
 H        -1.021573        -1.627396         1.618083
