19
Iteration:  2533
 O         0.532445         0.216352         0.362581
 C        -0.805457         0.405502         0.803977
 C        -2.184529         0.155893         0.089981
 C        -2.658143         1.319076         0.941228
 C        -2.547474         0.958039         2.509763
 C        -1.413182         2.037902         2.644390
 C        -1.232468         1.896820         1.141666
 O        -2.189054        -0.384234         2.727109
 C        -0.972231        -0.540635         2.017650
 H         0.447498         0.295924        -0.615057
 H        -2.114373         0.567462        -0.895027
 H        -2.751175        -0.746660         0.073652
 H        -3.466777         1.985943         0.634508
 H        -3.337721         1.069373         3.286533
 H        -1.766317         3.019024         2.960931
 H        -0.496418         1.795496         3.180181
 H        -0.903450         2.689097         0.445234
 H        -0.199025        -0.349656         2.731816
 H        -1.039255        -1.547100         1.549172
