19
Iteration:  4354
 O         0.407674         0.147659         0.014263
 C        -0.777573         0.379813         0.822979
 C        -2.156492         0.010698         0.135791
 C        -2.648953         1.260233         0.978408
 C        -2.651507         0.963832         2.569444
 C        -1.605659         2.094556         2.613590
 C        -1.246201         1.911009         1.152548
 O        -2.102564        -0.300343         2.755852
 C        -0.728939        -0.384477         2.166655
 H         1.061631        -0.283035         0.569339
 H        -2.265920         0.367769        -0.893963
 H        -2.375054        -1.084414         0.235818
 H        -3.533811         1.870008         0.647428
 H        -3.640463         1.130768         3.042462
 H        -2.004418         3.115051         2.421782
 H        -0.890398         2.291236         3.487604
 H        -0.808516         2.605630         0.359882
 H         0.154935        -0.072390         2.839433
 H        -0.695409        -1.439499         2.250172
