19
Iteration:  2520
 O         0.555232         0.218913         0.313223
 C        -0.824433         0.375201         0.810411
 C        -2.132559         0.164629         0.017976
 C        -2.719182         1.308571         1.074801
 C        -2.593356         1.039908         2.544141
 C        -1.408203         2.032093         2.641314
 C        -1.237594         1.837656         1.142173
 O        -2.181460        -0.292977         2.721491
 C        -0.966916        -0.616369         1.975355
 H         0.730416         0.508003        -0.586087
 H        -2.129695         0.433601        -1.025588
 H        -2.311257        -0.886924         0.203763
 H        -3.676299         1.870222         0.898092
 H        -3.658315         1.340452         2.949047
 H        -1.895856         3.013946         2.836576
 H        -0.671479         1.765146         3.508620
 H        -0.702980         2.602728         0.546640
 H        -0.019006        -0.671005         2.525911
 H        -0.955431        -1.603205         1.682264
