19
Iteration:  4615charge 0 multiplicity 1
 O         0.511510         0.112492         0.211288
 C        -0.791567         0.390368         0.793697
 C        -2.159756         0.087448         0.115030
 C        -2.721499         1.226370         0.922315
 C        -2.606173         1.010184         2.593070
 C        -1.563112         2.157891         2.630719
 C        -1.338389         1.847572         1.158270
 O        -2.023002        -0.322817         2.717730
 C        -0.814455        -0.388488         2.123848
 H         0.256914        -0.243291        -0.676578
 H        -2.049561         0.387428        -1.021933
 H        -2.435497        -0.994472         0.177536
 H        -3.643314         1.801479         0.589340
 H        -3.487826         1.070322         3.282589
 H        -1.980878         3.171613         2.666886
 H        -0.800225         1.866341         3.415349
 H        -0.972793         2.664743         0.489757
 H        -0.052969         0.061313         2.789015
 H        -0.601939        -1.509549         1.946662
