19
Iteration:  2796charge 0 multiplicity 1
 O         0.570944         0.245988         0.346610
 C        -0.836999         0.295172         0.746914
 C        -2.226781         0.170830         0.018967
 C        -2.670565         1.349002         1.038262
 C        -2.556487         1.054573         2.516158
 C        -1.425279         2.078592         2.652385
 C        -1.230607         1.777695         1.223574
 O        -2.167600        -0.346170         2.711451
 C        -0.947419        -0.630930         1.959597
 H         0.634406         1.014137        -0.261183
 H        -2.252847         0.610821        -0.928727
 H        -2.615717        -0.811830         0.216736
 H        -3.473955         2.028517         0.833966
 H        -3.525466         1.201024         2.974203
 H        -1.834162         3.059012         2.884655
 H        -0.643804         1.704120         3.298537
 H        -0.943011         2.602451         0.559650
 H        -0.038459        -0.457945         2.552823
 H        -0.924582        -1.605632         1.637520
