19
Iteration:  3755charge 0 multiplicity 1
 O         0.439251         0.193137         0.266571
 C        -0.769354         0.383812         0.864021
 C        -2.197793         0.084729         0.082327
 C        -2.674799         1.255977         0.964550
 C        -2.558174         1.005388         2.523221
 C        -1.487928         2.146037         2.586846
 C        -1.279541         1.825395         1.054572
 O        -2.130835        -0.386737         2.772948
 C        -0.807618        -0.496642         2.089192
 H         0.635757         1.029402        -0.176853
 H        -2.085192         0.204405        -0.955609
 H        -2.853578        -0.824192         0.178719
 H        -3.526871         1.789760         0.517140
 H        -3.443524         1.147506         3.060111
 H        -2.012783         3.073958         2.922531
 H        -0.644501         1.970260         3.308241
 H        -0.922199         2.673294         0.503338
 H         0.027353        -0.045257         2.816476
 H        -0.702389        -1.499498         1.782704
