19
Iteration:  1504
 O         0.407830        -0.025773         0.163387
 C        -0.742495         0.430166         0.824991
 C        -2.093143         0.207102         0.088131
 C        -2.661973         1.347757         0.942593
 C        -2.710382         0.989173         2.465326
 C        -1.578245         2.084518         2.791697
 C        -1.202390         1.879098         1.248311
 O        -2.123389        -0.357881         2.671454
 C        -0.755650        -0.466857         2.081129
 H         0.649219         0.613879        -0.557700
 H        -2.059449         0.468044        -0.994272
 H        -2.722417        -0.704457         0.321802
 H        -3.455091         2.024135         0.687354
 H        -3.672426         0.935557         2.937552
 H        -1.920664         3.066281         2.738490
 H        -0.798557         1.930924         3.451191
 H        -0.760435         2.810531         0.729755
 H        -0.098770        -0.272526         2.827560
 H        -0.677341        -1.508731         1.757889
