19
Iteration:  4346charge 0 multiplicity 1
 O         0.448967         0.187479         0.004344
 C        -0.803958         0.337972         0.767210
 C        -2.123043         0.020530         0.137501
 C        -2.676627         1.248962         1.007602
 C        -2.675954         1.056407         2.509322
 C        -1.593281         2.137169         2.612322
 C        -1.198147         1.812943         1.165380
 O        -2.078047        -0.306497         2.820758
 C        -0.799439        -0.416192         2.141326
 H         1.195797        -0.016659         0.569527
 H        -2.207205         0.111260        -0.941864
 H        -2.633397        -0.990165         0.423491
 H        -3.533030         1.810826         0.659077
 H        -3.581208         0.938945         3.102023
 H        -2.188262         3.114904         2.538485
 H        -0.858120         2.264626         3.503837
 H        -0.897116         2.769055         0.606440
 H        -0.003151        -0.066361         2.792974
 H        -0.679492        -1.518388         2.009870
