19
Iteration:  1142
 O         0.498767         0.242037         0.285022
 C        -0.765875         0.355961         0.799254
 C        -2.064932         0.221134         0.010505
 C        -2.680777         1.294551         1.020023
 C        -2.678829         1.049804         2.590765
 C        -1.427647         2.049513         2.677464
 C        -1.208855         1.829678         1.154219
 O        -2.176497        -0.340477         2.785533
 C        -0.969400        -0.667057         1.975083
 H         0.387527         0.597545        -0.621069
 H        -2.040475         0.700090        -0.909256
 H        -2.444169        -0.788602        -0.258559
 H        -3.407655         2.061477         0.602335
 H        -3.555634         1.189668         3.204538
 H        -1.732462         3.075537         2.860298
 H        -0.679848         1.821684         3.429474
 H        -0.838750         2.436874         0.461532
 H        -0.016522        -0.608094         2.481586
 H        -1.168344        -1.629702         1.467514
