19
Iteration:  4628
 O         0.484070         0.134375         0.085615
 C        -0.772810         0.348657         0.792152
 C        -2.102140         0.031517         0.090349
 C        -2.729112         1.196650         0.999229
 C        -2.671676         1.006131         2.488880
 C        -1.627763         2.119380         2.723652
 C        -1.184051         1.900418         1.132372
 O        -2.108237        -0.265792         2.830545
 C        -0.748079        -0.370795         2.129881
 H         0.380442        -0.338394        -0.741540
 H        -2.259345         0.460140        -0.959821
 H        -2.679017        -0.996250         0.135988
 H        -3.522982         1.733285         0.508221
 H        -3.596502         1.037953         3.021977
 H        -2.178868         3.014453         2.974272
 H        -0.854684         2.144936         3.564504
 H        -0.684286         2.689794         0.484101
 H         0.019046        -0.044871         2.702687
 H        -0.501862        -1.493349         1.939162
