19
Iteration:  2882charge 0 multiplicity 1
 O         0.392733         0.012573         0.218588
 C        -0.810798         0.440515         0.825857
 C        -2.135318         0.290528         0.120128
 C        -2.620315         1.445980         0.965566
 C        -2.651461         0.923702         2.509688
 C        -1.542256         1.992027         2.764379
 C        -1.119838         1.915841         1.186309
 O        -2.137985        -0.439835         2.564087
 C        -0.792371        -0.433726         2.116082
 H         0.293403         0.179933        -0.727845
 H        -2.129827         0.468084        -1.035132
 H        -2.602776        -0.774716         0.283421
 H        -3.467566         1.971162         0.632302
 H        -3.621889         0.910083         3.016867
 H        -2.023124         2.889357         3.014312
 H        -0.808504         1.769562         3.541678
 H        -0.814710         2.768346         0.624257
 H        -0.178355         0.136190         2.926489
 H        -0.548260        -1.500372         1.905185
