19
Iteration:  1913
 O         0.368531        -0.044437         0.092626
 C        -0.726042         0.345661         0.876886
 C        -2.105934         0.270113         0.094620
 C        -2.687767         1.381500         0.926357
 C        -2.651922         0.939896         2.502883
 C        -1.587703         2.086711         2.824176
 C        -1.156874         1.917639         1.237592
 O        -2.141609        -0.382782         2.599415
 C        -0.815011        -0.429591         2.137518
 H         0.615667         0.682461        -0.478973
 H        -1.981410         0.483597        -0.991282
 H        -2.435492        -0.750785         0.184935
 H        -3.491137         2.026677         0.654340
 H        -3.588020         0.851522         2.969133
 H        -2.008414         3.031006         2.984037
 H        -0.760405         1.865120         3.510378
 H        -0.475761         2.679913         0.693346
 H        -0.065900         0.161124         2.843504
 H        -0.567242        -1.463702         1.915901
