19
Iteration:  2340
 O         0.409543         0.012592         0.191585
 C        -0.858455         0.358378         0.834790
 C        -2.079878         0.263893         0.068822
 C        -2.677651         1.401377         0.922295
 C        -2.661880         0.935133         2.467921
 C        -1.542646         2.095872         2.805907
 C        -1.198431         1.896847         1.182468
 O        -2.114610        -0.348138         2.698704
 C        -0.809997        -0.533151         2.121532
 H         0.627602         0.326796        -0.711061
 H        -1.960055         0.413285        -1.011708
 H        -2.627767        -0.696227        -0.001976
 H        -3.401125         2.182649         0.624867
 H        -3.579767         0.930460         2.995233
 H        -1.941286         3.145407         3.095542
 H        -0.706498         2.011198         3.542711
 H        -0.676461         2.575447         0.494881
 H         0.089896        -0.168432         2.649221
 H        -0.498195        -1.493710         1.799845
