19
Iteration:  1018charge 0 multiplicity 1
 O         0.513111         0.278368         0.250604
 C        -0.834937         0.327548         0.818171
 C        -2.162675         0.220143        -0.063741
 C        -2.627207         1.353944         0.998724
 C        -2.649673         0.994080         2.563985
 C        -1.439492         2.079400         2.728116
 C        -1.233433         1.799453         1.239752
 O        -2.164012        -0.339331         2.698799
 C        -0.909919        -0.610413         2.019872
 H         0.562614        -0.557346        -0.249147
 H        -1.909494         0.668536        -1.049747
 H        -2.794390        -0.658082         0.023642
 H        -3.436991         2.102980         0.664391
 H        -3.617975         0.989284         3.155867
 H        -1.762166         3.152912         2.989476
 H        -0.616026         1.850218         3.468747
 H        -0.875227         2.410771         0.460801
 H         0.029135        -0.401433         2.616089
 H        -0.774526        -1.660535         1.637077
