19
Iteration:  1270
 O         0.525693         0.129040         0.345024
 C        -0.814209         0.357864         0.763589
 C        -2.157343         0.234228        -0.048352
 C        -2.702287         1.324762         0.945512
 C        -2.608417         0.963300         2.501111
 C        -1.448555         2.104335         2.723889
 C        -1.248039         1.881586         1.182080
 O        -2.097368        -0.318961         2.852943
 C        -0.961414        -0.629200         1.970001
 H         0.611276         0.786306        -0.362742
 H        -2.134824         0.669950        -1.144541
 H        -2.616398        -0.778905         0.083370
 H        -3.587353         1.894660         0.555642
 H        -3.561037         1.035681         3.020180
 H        -1.769291         3.102673         3.066244
 H        -0.524054         1.712432         3.208266
 H        -0.778500         2.739373         0.494196
 H        -0.073721        -0.466131         2.553135
 H        -1.030563        -1.618282         1.480093
