19
Iteration:   587charge 0 multiplicity 1
 O         0.493241         0.115111         0.324305
 C        -0.852070         0.358411         0.776505
 C        -2.121625         0.247282        -0.048333
 C        -2.699479         1.301409         0.986699
 C        -2.613667         1.037458         2.550815
 C        -1.407297         1.989648         2.752375
 C        -1.199304         1.842676         1.187090
 O        -2.160295        -0.304796         2.711577
 C        -0.965666        -0.580641         1.940576
 H         0.797401         1.023906         0.070524
 H        -1.951396         1.018596        -0.899341
 H        -2.560417        -0.740257        -0.178888
 H        -3.613318         1.819853         0.637664
 H        -3.445026         1.079697         3.181764
 H        -1.847264         3.049539         2.995970
 H        -0.559801         1.564877         3.351800
 H        -0.579776         2.756513         0.880497
 H        -0.114302        -0.409647         2.598655
 H        -1.043642        -1.604879         1.602329
