19
Iteration:  4919charge 0 multiplicity 1
 O         0.441023         0.032196         0.015901
 C        -0.744433         0.404571         0.820776
 C        -2.175540         0.122298         0.168646
 C        -2.675401         1.283115         0.977259
 C        -2.652129         0.924686         2.477012
 C        -1.570172         2.098463         2.656509
 C        -1.294564         1.849658         1.169277
 O        -2.070439        -0.339526         2.710856
 C        -0.768804        -0.300555         2.183348
 H         1.109142        -0.343619         0.606935
 H        -2.088304         0.493513        -0.915254
 H        -2.662271        -0.820470         0.051459
 H        -3.516367         2.054891         0.867714
 H        -3.657690         1.096727         3.063904
 H        -2.114768         3.059550         2.740025
 H        -0.793069         2.074871         3.437543
 H        -0.837985         2.710550         0.669035
 H        -0.098638         0.276915         2.905257
 H        -0.593659        -1.393611         2.061755
