19
Iteration:  3529
 O         0.400447         0.099867         0.208738
 C        -0.844281         0.433225         0.847407
 C        -2.068829         0.150423         0.099273
 C        -2.666373         1.317451         0.909105
 C        -2.622415         0.939683         2.493213
 C        -1.484535         2.035155         2.601692
 C        -1.258878         1.901901         1.095052
 O        -2.115841        -0.373143         2.731706
 C        -0.813333        -0.442478         2.255702
 H         0.216724         0.429598        -0.704273
 H        -1.758532         0.671271        -0.805326
 H        -2.675884        -0.781173         0.067228
 H        -3.467434         1.951992         0.524229
 H        -3.528423         1.033841         3.050300
 H        -2.013650         2.907856         2.855461
 H        -0.655298         1.801297         3.203674
 H        -0.770981         2.739396         0.636563
 H        -0.132010        -0.074512         3.066740
 H        -0.561876        -1.452204         2.005733
