19
Iteration:   888charge 0 multiplicity 1
 O         0.509959         0.226259         0.253025
 C        -0.718933         0.385634         0.894932
 C        -2.133663         0.275716         0.077602
 C        -2.641827         1.397438         0.980882
 C        -2.658824         0.980732         2.496383
 C        -1.426945         1.926146         2.733498
 C        -1.218406         1.832723         1.216848
 O        -2.213516        -0.342898         2.618602
 C        -0.919264        -0.544650         1.986542
 H         0.225964        -0.218898        -0.589812
 H        -2.194328         0.540818        -0.973900
 H        -2.626399        -0.735127         0.061036
 H        -3.532309         2.179802         0.836897
 H        -3.662307         0.964534         3.073245
 H        -1.607022         2.920825         2.994941
 H        -0.703083         1.426127         3.323984
 H        -0.767009         2.691416         0.774992
 H        -0.161055        -0.396909         2.749204
 H        -0.993665        -1.658998         1.726355
