19
Iteration:   667
 O         0.517763        -0.049023         0.072943
 C        -0.777936         0.370393         0.796991
 C        -2.124819         0.364906         0.021007
 C        -2.613371         1.422856         0.961124
 C        -2.673683         0.969199         2.479618
 C        -1.640350         2.003240         2.846003
 C        -1.124410         1.946482         1.329038
 O        -2.151106        -0.365348         2.675390
 C        -0.874510        -0.530175         2.115035
 H         0.429247         0.101937        -0.911349
 H        -1.951665         0.782733        -1.043882
 H        -2.611956        -0.641498        -0.103758
 H        -3.569428         1.982262         0.607993
 H        -3.681652         1.028133         3.010788
 H        -2.061893         2.916620         3.165031
 H        -1.055969         1.796650         3.686668
 H        -0.548456         2.758998         0.881672
 H        -0.090565        -0.148095         2.746522
 H        -0.668126        -1.631490         1.962407
