19
Iteration:   833
 O         0.439679         0.242837         0.140269
 C        -0.786961         0.330099         0.898234
 C        -2.153467         0.308861         0.056681
 C        -2.642547         1.472608         0.921072
 C        -2.624982         1.035624         2.487370
 C        -1.517575         1.954970         2.782909
 C        -1.145035         1.835144         1.274828
 O        -2.148615        -0.375435         2.647129
 C        -0.903747        -0.653954         2.001881
 H         0.774341        -0.654196         0.368388
 H        -1.915369         0.797362        -0.929728
 H        -2.535641        -0.747373        -0.125115
 H        -3.509653         2.189822         0.539040
 H        -3.510767         0.998408         3.228823
 H        -1.933160         2.915231         2.966302
 H        -0.902634         1.846514         3.648593
 H        -0.698978         2.655643         0.754107
 H        -0.081697        -0.625060         2.698894
 H        -0.949592        -1.762311         1.732219
