19
Iteration:  4082charge 0 multiplicity 1
 O         0.366143         0.167193         0.076532
 C        -0.777898         0.342023         0.864262
 C        -2.168719         0.086330         0.192821
 C        -2.674801         1.304030         0.939281
 C        -2.624382         0.958468         2.489906
 C        -1.628170         2.144432         2.713306
 C        -1.210159         1.901011         1.113979
 O        -2.052440        -0.285443         2.693241
 C        -0.715215        -0.449469         2.159831
 H         0.544884        -0.777133         0.021771
 H        -1.986807         0.017712        -0.859116
 H        -2.583053        -0.937727         0.386214
 H        -3.558206         1.912295         0.574067
 H        -3.578786         0.859311         3.036792
 H        -2.082361         3.123289         2.628655
 H        -0.893762         2.090925         3.506801
 H        -0.841197         2.614257         0.304042
 H         0.044962        -0.035756         3.076636
 H        -0.389925        -1.522275         1.884710
