19
Iteration:   454
 O         0.510144         0.240560         0.247577
 C        -0.802886         0.366860         0.796318
 C        -2.092108         0.382497        -0.099841
 C        -2.705408         1.351419         1.077761
 C        -2.623685         0.925773         2.560836
 C        -1.403962         2.048807         2.635883
 C        -1.211177         1.763316         1.179149
 O        -2.158494        -0.362440         2.727910
 C        -0.981631        -0.623154         2.043221
 H         0.817797        -0.504032         0.814865
 H        -2.054264         1.053082        -1.053924
 H        -2.671339        -0.591838        -0.353661
 H        -3.563626         1.918629         0.916158
 H        -3.452531         0.910584         3.220760
 H        -1.912480         3.057638         2.713165
 H        -0.748290         2.160686         3.561507
 H        -0.740336         2.438128         0.405568
 H        -0.104081        -0.575469         2.742381
 H        -1.241110        -1.615186         1.665591
