19
Iteration:   486
 O         0.446243         0.245998         0.216500
 C        -0.793033         0.414297         0.840514
 C        -2.133189         0.176740         0.062452
 C        -2.582615         1.446435         0.936973
 C        -2.670620         0.980169         2.499997
 C        -1.479520         1.983657         2.748909
 C        -1.142481         1.897955         1.225434
 O        -2.170956        -0.383472         2.668347
 C        -0.915083        -0.553815         2.023708
 H         0.471007        -0.684226        -0.028934
 H        -2.155378         0.309650        -1.042130
 H        -2.734926        -0.767721         0.297216
 H        -3.316225         2.112379         0.642714
 H        -3.643768         1.009284         3.004520
 H        -1.873754         3.024634         2.967375
 H        -0.710465         1.567179         3.522337
 H        -0.642214         2.622260         0.577346
 H        -0.128006        -0.675447         2.746416
 H        -0.967403        -1.566363         1.660542
