19
Iteration:  3170
 O         0.376990         0.227966         0.193673
 C        -0.824630         0.361981         0.858607
 C        -2.109148         0.257570        -0.013077
 C        -2.595768         1.383058         0.896240
 C        -2.690160         0.894307         2.379546
 C        -1.537526         1.976521         2.697365
 C        -1.149629         1.833936         1.291234
 O        -2.083856        -0.312914         2.791285
 C        -0.851681        -0.511404         2.150136
 H         0.153755        -0.470160        -0.439549
 H        -1.788404         0.717855        -1.047587
 H        -2.546934        -0.827663        -0.046045
 H        -3.390487         2.148734         0.740722
 H        -3.698495         1.057622         2.732846
 H        -2.049444         2.905204         3.021647
 H        -0.779762         1.722747         3.432607
 H        -0.558001         2.470501         0.592744
 H        -0.073527        -0.120687         2.790996
 H        -0.752659        -1.705225         1.908605
