19
Iteration:  2066charge 0 multiplicity 1
 O         0.374886         0.162966         0.129748
 C        -0.771950         0.312653         0.871131
 C        -2.088803         0.136196         0.099063
 C        -2.649683         1.365056         0.925872
 C        -2.639587         0.992489         2.419048
 C        -1.502133         2.022099         2.718002
 C        -1.103467         1.906817         1.261212
 O        -2.162796        -0.309780         2.700353
 C        -0.894563        -0.542617         2.133866
 H         0.365729         0.603649        -0.735424
 H        -2.002344         0.385869        -0.967015
 H        -2.739793        -0.720571         0.209062
 H        -3.580351         1.835679         0.580869
 H        -3.538552         1.003133         3.020437
 H        -1.993382         2.975259         3.056859
 H        -0.690460         1.940457         3.499775
 H        -0.573944         2.780860         0.800803
 H        -0.106267        -0.339840         2.835872
 H        -0.629322        -1.544510         1.840235
