19
Iteration:   843
 O         0.410977         0.328874         0.171763
 C        -0.826742         0.332452         0.858846
 C        -2.122390         0.301502         0.047847
 C        -2.561773         1.397642         1.004708
 C        -2.630421         0.933321         2.520382
 C        -1.454879         1.986445         2.720271
 C        -1.123158         1.814204         1.255318
 O        -2.219515        -0.363262         2.617278
 C        -0.943736        -0.614890         2.081154
 H         0.932822        -0.514719         0.200598
 H        -1.865699         0.586557        -1.018932
 H        -2.787623        -0.611150        -0.056424
 H        -3.372708         2.215522         0.656667
 H        -3.610055         1.059481         3.114101
 H        -1.955210         2.941242         2.876805
 H        -0.626924         1.679676         3.344253
 H        -0.557112         2.446379         0.597411
 H        -0.119825        -0.571394         2.838488
 H        -1.045026        -1.595501         1.521354
