19
Iteration:  1699charge 0 multiplicity 1
 O         0.557583         0.235230         0.357845
 C        -0.882034         0.353902         0.816398
 C        -2.223488         0.176194        -0.031993
 C        -2.662075         1.291231         1.003593
 C        -2.493537         0.980204         2.534145
 C        -1.395007         2.025099         2.603610
 C        -1.226173         1.862892         1.098359
 O        -2.222033        -0.398139         2.730925
 C        -0.953345        -0.507572         2.074388
 H         0.631991         0.876396        -0.402011
 H        -2.209168         0.610850        -0.995758
 H        -2.802297        -0.749152         0.101890
 H        -3.615423         1.818906         0.778772
 H        -3.350266         1.024555         3.183070
 H        -1.601638         3.082996         2.891188
 H        -0.570420         1.923768         3.345050
 H        -0.638146         2.587448         0.573623
 H        -0.129678        -0.379512         2.726500
 H        -0.953251        -1.492749         1.761867
