19
Iteration:  3136
 O         0.512082         0.276849        -0.001526
 C        -0.740006         0.312607         0.829079
 C        -2.086703         0.194604         0.134397
 C        -2.623833         1.365050         1.025399
 C        -2.709924         1.016554         2.478964
 C        -1.634048         2.119296         2.732080
 C        -1.114486         1.760414         1.347976
 O        -2.192345        -0.304162         2.693862
 C        -0.880211        -0.615926         2.043399
 H         0.869131        -0.615209        -0.013695
 H        -2.080784         0.462406        -1.001952
 H        -2.453082        -0.888323         0.172608
 H        -3.362447         2.118114         0.607718
 H        -3.635849         1.016991         3.079225
 H        -2.255462         3.041918         2.779328
 H        -0.804972         2.122279         3.435976
 H        -0.731510         2.510056         0.627857
 H        -0.248705        -0.466989         2.911764
 H        -0.837077        -1.800382         1.785936
