19
Iteration:  4697charge 0 multiplicity 1
 O         0.544049         0.270998         0.171453
 C        -0.761635         0.416596         0.758522
 C        -2.237437         0.014369         0.126542
 C        -2.722062         1.294115         0.918904
 C        -2.646260         0.990136         2.628299
 C        -1.497674         2.068964         2.595045
 C        -1.269616         1.823005         1.063755
 O        -2.138471        -0.346737         2.812429
 C        -0.805579        -0.388213         2.096384
 H         0.943246        -0.618730         0.207209
 H        -2.166159         0.239278        -0.913526
 H        -2.419323        -1.089680         0.293684
 H        -3.611028         1.752709         0.519129
 H        -3.494699         1.104602         3.327172
 H        -2.039321         3.038750         2.762482
 H        -0.734331         2.074113         3.348932
 H        -0.841469         2.524122         0.371146
 H        -0.007289        -0.120401         2.684711
 H        -0.733037        -1.426107         1.968242
