19
Iteration:  3580
 O         0.457390         0.144533         0.150308
 C        -0.781882         0.291252         0.782727
 C        -2.169555         0.177821         0.067115
 C        -2.681993         1.287912         0.906357
 C        -2.676188         1.008691         2.483831
 C        -1.627254         2.115561         2.657669
 C        -1.162047         1.762071         1.192686
 O        -2.056534        -0.283217         2.865815
 C        -0.795469        -0.508843         2.071924
 H         0.778852         1.061123         0.204205
 H        -2.157844         0.258792        -1.005880
 H        -2.779245        -0.679413         0.423511
 H        -3.351125         2.107897         0.593778
 H        -3.623727         1.174796         2.972112
 H        -2.184708         3.100869         2.587560
 H        -0.906900         2.023356         3.525511
 H        -0.698560         2.455147         0.472533
 H         0.042021        -0.349288         2.759152
 H        -0.693859        -1.668492         1.824523
