19
Iteration:  4416charge 0 multiplicity 1
 O         0.484026         0.278408         0.133463
 C        -0.788001         0.333633         0.781796
 C        -2.154883         0.035827         0.120818
 C        -2.675972         1.209188         1.006439
 C        -2.678576         1.017795         2.524561
 C        -1.538018         2.161418         2.602057
 C        -1.262527         1.782827         1.123767
 O        -2.049859        -0.233521         2.854662
 C        -0.848793        -0.502741         2.104715
 H         0.626433        -0.575551        -0.285350
 H        -2.160305         0.276353        -0.983133
 H        -2.408390        -1.005231         0.166228
 H        -3.557839         1.785971         0.682302
 H        -3.599013         1.109813         3.138441
 H        -2.010772         3.143272         2.410429
 H        -0.947601         2.224610         3.486141
 H        -0.830371         2.562527         0.536950
 H         0.060049        -0.193175         2.608145
 H        -0.651861        -1.607570         1.827653
