19
Iteration:   543
 O         0.425909         0.083502         0.137453
 C        -0.772780         0.329047         0.858263
 C        -2.091899         0.295810         0.086212
 C        -2.638070         1.402975         0.974112
 C        -2.638326         0.942773         2.472312
 C        -1.584056         2.055475         2.721359
 C        -1.120121         1.873054         1.372770
 O        -2.168441        -0.371137         2.652871
 C        -0.842177        -0.560053         2.055701
 H         0.268351         0.122314        -0.839049
 H        -1.855336         0.869297        -0.923933
 H        -2.655623        -0.655578         0.002437
 H        -3.472299         2.024724         0.616824
 H        -3.546870         1.152952         2.944485
 H        -2.196942         3.051943         2.677040
 H        -0.938176         2.035596         3.652382
 H        -0.459057         2.584548         0.745309
 H        -0.096499        -0.168026         2.749532
 H        -0.812755        -1.606851         1.806856
