19
Iteration:  2802charge 0 multiplicity 1
 O         0.526156         0.266775         0.310487
 C        -0.801869         0.305653         0.744241
 C        -2.195203         0.199452         0.017623
 C        -2.654262         1.343794         1.013014
 C        -2.558327         1.033666         2.503842
 C        -1.433415         2.091277         2.667093
 C        -1.256095         1.784368         1.175284
 O        -2.145666        -0.332820         2.747902
 C        -0.965122        -0.665725         2.017416
 H         0.690579         1.023910        -0.259153
 H        -2.347632         0.556878        -1.091902
 H        -2.665730        -0.849694        -0.026643
 H        -3.365301         2.181494         0.746651
 H        -3.515252         1.173191         3.065347
 H        -1.860640         3.021973         3.116216
 H        -0.749938         1.684758         3.457512
 H        -0.813271         2.567116         0.524950
 H        -0.072612        -0.683342         2.733924
 H        -0.910631        -1.844267         1.702759
