19
Iteration:   424charge 0 multiplicity 1
 O         0.420263         0.151084         0.120488
 C        -0.814725         0.378007         0.794130
 C        -2.043276         0.290069        -0.056187
 C        -2.648710         1.383855         0.884203
 C        -2.628092         0.956221         2.463235
 C        -1.445955         1.999865         2.839069
 C        -1.240875         1.914482         1.278150
 O        -2.152492        -0.326838         2.789962
 C        -0.959072        -0.607486         2.039782
 H         1.028428         0.007812         0.852910
 H        -1.916445         0.685355        -1.114619
 H        -2.546560        -0.636865         0.043499
 H        -3.723930         1.753439         0.576175
 H        -3.551160         1.045484         3.000079
 H        -1.810875         2.950338         3.260750
 H        -0.783259         1.545041         3.494276
 H        -0.534729         2.645613         0.722210
 H         0.003822        -0.399185         2.604536
 H        -0.982547        -1.675243         1.640410
