19
Iteration:  2760
 O         0.461742         0.043218         0.233520
 C        -0.836338         0.402921         0.866525
 C        -2.118483         0.248977         0.078638
 C        -2.624878         1.376922         0.989238
 C        -2.591610         0.972167         2.447468
 C        -1.489125         2.001029         2.713913
 C        -1.271276         1.975596         1.191956
 O        -2.190855        -0.432417         2.649018
 C        -0.829858        -0.494497         2.091463
 H         0.478160         0.574524        -0.584595
 H        -2.050998         0.359545        -1.034040
 H        -2.629348        -0.746795         0.082927
 H        -3.528223         1.961874         0.817098
 H        -3.484018         1.140916         3.081987
 H        -1.707913         2.967912         3.015241
 H        -0.563410         1.851399         3.225279
 H        -0.965207         2.780830         0.563888
 H        -0.026025        -0.053161         2.765527
 H        -0.617774        -1.530270         1.959622
