19
Iteration:  4548
 O         0.428938         0.218054         0.025723
 C        -0.754149         0.316864         0.857319
 C        -2.123854         0.016261         0.172692
 C        -2.718108         1.204810         0.953206
 C        -2.664021         1.066504         2.468348
 C        -1.613858         2.108473         2.667475
 C        -1.214474         1.758484         1.126545
 O        -2.035699        -0.226068         2.837940
 C        -0.825352        -0.485367         2.140354
 H         1.004695         0.981104         0.157090
 H        -2.047336         0.548957        -0.870179
 H        -2.586950        -0.978891         0.125789
 H        -3.603606         1.778955         0.537604
 H        -3.587076         1.016910         3.131206
 H        -1.800054         3.178634         2.550816
 H        -0.850275         1.887434         3.454652
 H        -0.881158         2.599639         0.509490
 H         0.050499        -0.275273         2.640362
 H        -0.921431        -1.558075         1.875433
