19
Iteration:   940
 O         0.409095         0.010339         0.047273
 C        -0.741126         0.342176         0.783258
 C        -2.074830         0.375920         0.019858
 C        -2.639125         1.378637         1.014917
 C        -2.706834         0.938853         2.479049
 C        -1.643809         2.111154         2.816046
 C        -1.103846         1.783899         1.287418
 O        -2.154487        -0.379921         2.767553
 C        -0.837210        -0.549938         2.083918
 H         0.874828         0.833739        -0.254870
 H        -1.864437         1.130910        -0.845985
 H        -2.642638        -0.484361        -0.266739
 H        -3.345424         2.205580         0.645081
 H        -3.737800         0.893301         2.923586
 H        -2.167040         3.169578         2.676410
 H        -0.977847         1.885020         3.716498
 H        -0.525360         2.574651         0.772839
 H         0.201737        -0.362112         2.600917
 H        -0.828590        -1.630574         1.745698
