19
Iteration:  2745
 O         0.385213         0.031367         0.102164
 C        -0.731345         0.325426         0.840082
 C        -2.076151         0.258207         0.049433
 C        -2.652043         1.342777         0.914332
 C        -2.707738         0.905248         2.472461
 C        -1.475182         2.104047         2.783192
 C        -1.218415         1.924295         1.276874
 O        -2.138143        -0.349335         2.702332
 C        -0.828537        -0.448077         2.154571
 H         0.301336         0.415343        -0.801174
 H        -1.851876         0.798675        -0.920115
 H        -2.656837        -0.682123        -0.066707
 H        -3.530178         1.920371         0.477951
 H        -3.721051         0.875539         2.880075
 H        -2.012523         3.036638         3.146374
 H        -0.791098         1.693164         3.553922
 H        -0.581856         2.656329         0.699443
 H        -0.138222        -0.075113         2.920234
 H        -0.594213        -1.614404         1.910162
