19
Iteration:  4369
 O         0.334960         0.088620         0.061954
 C        -0.767505         0.375804         0.885813
 C        -2.089563         0.129304         0.156285
 C        -2.730759         1.234143         0.941861
 C        -2.605802         1.001655         2.483146
 C        -1.593914         2.165880         2.624637
 C        -1.297074         1.845386         1.096185
 O        -2.040090        -0.348965         2.719667
 C        -0.723334        -0.331532         2.215634
 H         0.881449        -0.649724         0.418250
 H        -1.871397         0.381587        -0.890586
 H        -2.671765        -0.849297         0.158336
 H        -3.563480         1.783235         0.555818
 H        -3.444930         0.909855         3.166827
 H        -2.217220         3.006274         3.021618
 H        -0.736967         1.992198         3.330202
 H        -0.883057         2.658153         0.465683
 H        -0.105063         0.127492         2.962203
 H        -0.310306        -1.353882         2.016185
