19
Iteration:  2577charge 0 multiplicity 1
 O         0.419194         0.028216         0.089988
 C        -0.733466         0.356963         0.818858
 C        -2.136885         0.251049         0.087827
 C        -2.558163         1.306346         0.973505
 C        -2.716419         1.013482         2.529058
 C        -1.576207         2.027196         2.767176
 C        -1.160671         1.827759         1.235110
 O        -2.150675        -0.304950         2.698327
 C        -0.800211        -0.451438         2.116412
 H         0.466467         0.661860        -0.665812
 H        -2.111244         0.704772        -0.859766
 H        -2.577666        -0.691763        -0.021743
 H        -3.339351         1.874494         0.502304
 H        -3.759059         0.915815         2.812967
 H        -2.170474         2.946282         2.870674
 H        -1.008661         1.910111         3.672477
 H        -0.610567         2.580679         0.640552
 H        -0.082182        -0.052219         2.797482
 H        -0.812305        -1.520114         1.866987
