19
Iteration:  3746charge 0 multiplicity 1
 O         0.453082         0.191195         0.332056
 C        -0.817313         0.372746         0.863424
 C        -2.220209         0.120808         0.114007
 C        -2.678997         1.273245         0.858278
 C        -2.564564         0.956809         2.511936
 C        -1.480269         2.118215         2.605002
 C        -1.316532         1.908790         1.057553
 O        -2.087355        -0.378270         2.748158
 C        -0.802033        -0.508582         2.112959
 H         0.532434         0.777830        -0.437685
 H        -2.264720         0.359909        -0.922161
 H        -2.793769        -0.805661         0.384715
 H        -3.653735         1.821690         0.688187
 H        -3.416217         1.017591         3.137545
 H        -1.913581         3.170819         2.645291
 H        -0.536355         1.939508         3.214506
 H        -0.759358         2.554457         0.380244
 H        -0.002124        -0.325703         2.942377
 H        -0.382509        -1.539296         1.773158
