19
Iteration:  4436
 O         0.448207         0.394205         0.144797
 C        -0.776648         0.274949         0.910584
 C        -2.132950         0.016065         0.138620
 C        -2.725366         1.192177         0.882668
 C        -2.563196         1.052033         2.555705
 C        -1.579336         2.229945         2.556097
 C        -1.250183         1.833971         1.115186
 O        -2.092677        -0.271921         2.873557
 C        -0.782135        -0.637624         2.119715
 H         0.409824        -0.299543        -0.529065
 H        -2.036223         0.231659        -1.011161
 H        -2.702468        -0.943991         0.251359
 H        -3.556655         1.757894         0.487228
 H        -3.460304         1.305208         3.139748
 H        -2.017342         3.267327         2.750116
 H        -0.685783         2.030275         3.161119
 H        -0.839244         2.309786         0.267730
 H         0.094888        -0.617798         2.691435
 H        -1.070108        -1.637595         1.727641
