19
Iteration:  2713charge 0 multiplicity 1
 O         0.447782         0.104219         0.084498
 C        -0.747562         0.278680         0.803780
 C        -2.112537         0.276074         0.099025
 C        -2.558360         1.369999         0.966087
 C        -2.715768         0.924282         2.471924
 C        -1.639615         2.146402         2.748376
 C        -1.122434         1.806646         1.324651
 O        -2.109228        -0.307918         2.784269
 C        -0.834850        -0.527470         2.032898
 H         0.255368         0.227041        -0.850354
 H        -2.140932         0.470122        -0.998935
 H        -2.801829        -0.570398        -0.057700
 H        -3.387900         2.025105         0.541039
 H        -3.738331         0.764777         2.836205
 H        -2.153954         3.099619         2.829213
 H        -1.058106         2.166907         3.695153
 H        -0.591470         2.607128         0.767781
 H        -0.034036        -0.259210         2.766858
 H        -0.880414        -1.684320         1.777463
