19
Iteration:  2970
 O         0.445654         0.022097         0.252822
 C        -0.782693         0.453338         0.898249
 C        -2.181179         0.263484         0.041638
 C        -2.674198         1.361703         0.981804
 C        -2.608801         0.936373         2.520085
 C        -1.496477         2.083725         2.661754
 C        -1.259908         1.897766         1.170601
 O        -2.134830        -0.385614         2.700636
 C        -0.835511        -0.544428         2.033481
 H         0.905609         0.739541        -0.200837
 H        -1.967415         0.610449        -1.025129
 H        -2.541401        -0.790526        -0.187186
 H        -3.401303         2.080195         0.666557
 H        -3.522698         1.027114         3.129625
 H        -2.026106         2.932003         3.023161
 H        -0.643548         1.949037         3.326827
 H        -0.875550         2.730146         0.643063
 H        -0.024315        -0.516287         2.758138
 H        -0.712040        -1.491346         1.486046
