19
Iteration:  3398
 O         0.455504         0.060907         0.221876
 C        -0.737606         0.394978         0.843715
 C        -2.157239         0.199817         0.088537
 C        -2.664599         1.375720         0.890992
 C        -2.629360         0.957118         2.458669
 C        -1.519202         2.130338         2.731818
 C        -1.234977         1.874077         1.212659
 O        -2.105700        -0.384785         2.685101
 C        -0.853537        -0.510505         2.104963
 H         0.518994         0.556031        -0.641055
 H        -2.206073         0.310083        -1.028077
 H        -2.618220        -0.869718         0.226772
 H        -3.528881         1.965232         0.574810
 H        -3.489015         1.064826         3.077251
 H        -2.111917         3.069547         2.938877
 H        -0.833535         1.885848         3.581424
 H        -0.870852         2.754576         0.694906
 H        -0.016191        -0.208511         2.777025
 H        -0.775241        -1.524302         1.873259
