19
Iteration:   720charge 0 multiplicity 1
 O         0.544354         0.269319         0.243028
 C        -0.788082         0.389722         0.822477
 C        -2.179594         0.249793         0.020568
 C        -2.590630         1.385990         0.971371
 C        -2.644457         1.027527         2.505523
 C        -1.444811         1.966847         2.792253
 C        -1.197695         1.835225         1.233510
 O        -2.225642        -0.337313         2.673693
 C        -0.934848        -0.649553         2.019573
 H         0.675973        -0.409521        -0.465037
 H        -2.145251         0.495060        -1.051140
 H        -2.673111        -0.683173         0.013979
 H        -3.400671         2.089359         0.681548
 H        -3.537690         1.238947         2.962596
 H        -1.794606         2.976938         3.142314
 H        -0.721127         1.563479         3.518557
 H        -0.910028         2.615565         0.509796
 H        -0.050680        -0.737277         2.636152
 H        -1.075675        -1.633726         1.567530
