19
Iteration:  4373charge 0 multiplicity 1
 O         0.346809         0.083937         0.070021
 C        -0.819292         0.350754         0.894620
 C        -2.066500         0.128311         0.147503
 C        -2.754606         1.251244         0.937759
 C        -2.612599         1.027969         2.445619
 C        -1.580362         2.143769         2.619098
 C        -1.294673         1.874542         1.126219
 O        -2.004851        -0.387078         2.729416
 C        -0.738838        -0.299694         2.205968
 H         0.837159        -0.681821         0.363274
 H        -1.823157         0.359942        -0.920029
 H        -2.648687        -0.723790         0.189909
 H        -3.696972         1.757317         0.594873
 H        -3.475975         0.864342         3.104977
 H        -2.038063         3.075097         2.948797
 H        -0.781676         2.066753         3.294638
 H        -1.023806         2.654994         0.478106
 H         0.006649         0.040365         3.002546
 H        -0.323575        -1.398362         2.183728
