19
Iteration:   872
 O         0.553053         0.340358         0.214562
 C        -0.828717         0.380901         0.739714
 C        -2.171857         0.205005         0.025415
 C        -2.664901         1.397565         0.961918
 C        -2.607274         1.011379         2.571261
 C        -1.368018         1.887018         2.749592
 C        -1.148954         1.863870         1.241156
 O        -2.312282        -0.404563         2.616979
 C        -0.985756        -0.573734         2.138583
 H         0.736910        -0.335423        -0.472685
 H        -1.982816         0.593511        -1.003106
 H        -2.616899        -0.777168         0.158555
 H        -3.371044         1.970119         0.479391
 H        -3.374883         1.282697         3.223429
 H        -1.812160         2.898018         3.170382
 H        -0.490153         1.577277         3.413400
 H        -0.603657         2.551947         0.535497
 H        -0.143284        -0.373213         2.892748
 H        -0.792961        -1.532507         1.727630
