19
Iteration:  4885charge 0 multiplicity 1
 O         0.370804         0.224129         0.058000
 C        -0.780466         0.384534         0.906297
 C        -2.098826         0.090391        -0.000387
 C        -2.687980         1.258222         0.926626
 C        -2.576792         0.966864         2.482056
 C        -1.594702         2.096696         2.603013
 C        -1.296816         1.797512         1.141829
 O        -2.011154        -0.244317         2.922159
 C        -0.852619        -0.535268         2.138053
 H         1.086194        -0.057970         0.638774
 H        -1.856045         0.648588        -0.950800
 H        -2.701014        -0.823168        -0.036104
 H        -3.458122         1.997513         0.528073
 H        -3.514290         1.160760         3.160483
 H        -2.092732         3.095802         2.597107
 H        -0.835327         2.133818         3.380105
 H        -0.767175         2.555212         0.577828
 H         0.083929        -0.556554         2.793042
 H        -0.940183        -1.650318         1.820179
