19
Iteration:  3219charge 0 multiplicity 1
 O         0.501113         0.151308         0.285643
 C        -0.805554         0.356702         0.750985
 C        -2.074829         0.128981         0.083608
 C        -2.667402         1.382421         1.043741
 C        -2.620322         1.010775         2.533632
 C        -1.497990         2.091965         2.699977
 C        -1.165505         1.898331         1.173403
 O        -2.234173        -0.407498         2.646248
 C        -0.905862        -0.561788         2.023981
 H         0.682170         0.649327        -0.545794
 H        -2.076402         0.552621        -0.904326
 H        -2.604641        -0.845637         0.237372
 H        -3.593080         1.821481         0.661323
 H        -3.514945         1.163816         3.191021
 H        -1.774900         3.146156         2.784885
 H        -0.713051         2.010403         3.509214
 H        -0.830033         2.753283         0.566741
 H        -0.137758        -0.468382         2.880820
 H        -0.756693        -1.493624         1.560930
