19
Iteration:  4145
 O         0.514917         0.247578         0.181031
 C        -0.844697         0.353631         0.794494
 C        -2.152926         0.036211         0.067047
 C        -2.765952         1.195854         1.003336
 C        -2.605888         0.979654         2.588970
 C        -1.450491         2.162077         2.584030
 C        -1.312157         1.839985         1.105522
 O        -2.100733        -0.291829         2.819642
 C        -0.789341        -0.449362         2.081835
 H         0.604080        -0.582143        -0.306298
 H        -1.970258         0.555025        -0.939693
 H        -2.579837        -0.975967         0.089157
 H        -3.707782         1.668943         0.643982
 H        -3.532871         1.156119         3.177112
 H        -1.922055         3.192491         2.637680
 H        -0.547139         2.025689         3.317204
 H        -1.063877         2.719482         0.420824
 H        -0.108804        -0.090075         2.761571
 H        -0.635612        -1.488161         2.050893
