19
Iteration:   718
 O         0.532019         0.256941         0.246225
 C        -0.782119         0.388072         0.827721
 C        -2.165089         0.262874         0.017860
 C        -2.624265         1.387037         0.967988
 C        -2.625056         1.038560         2.500597
 C        -1.465157         1.960499         2.772759
 C        -1.186944         1.836237         1.240462
 O        -2.223877        -0.341781         2.677886
 C        -0.929226        -0.646763         2.013876
 H         0.644717        -0.393496        -0.481634
 H        -2.147224         0.521665        -1.015830
 H        -2.678569        -0.661902        -0.073690
 H        -3.400266         2.030805         0.708969
 H        -3.530130         1.205363         3.004535
 H        -1.784569         3.005206         3.186206
 H        -0.721340         1.602167         3.587348
 H        -0.837458         2.609891         0.505135
 H         0.001836        -0.752523         2.657128
 H        -1.039019        -1.633964         1.606934
