19
Iteration:  1299
 O         0.485210         0.081667         0.269778
 C        -0.793843         0.371991         0.819189
 C        -2.038033         0.327184        -0.068681
 C        -2.698868         1.277473         1.007461
 C        -2.621979         0.982295         2.565479
 C        -1.539134         2.057922         2.669524
 C        -1.219976         1.828099         1.155089
 O        -2.112382        -0.335378         2.827635
 C        -0.940380        -0.531576         2.015667
 H         0.254577         0.195503        -0.657463
 H        -2.000347         0.993600        -0.899789
 H        -2.402069        -0.632899        -0.216714
 H        -3.414394         1.918248         0.632028
 H        -3.497554         0.978651         3.227288
 H        -1.934044         3.058675         2.929521
 H        -0.678425         1.817191         3.289587
 H        -0.889750         2.508878         0.465276
 H        -0.150343        -0.124634         2.690393
 H        -0.920425        -1.534601         1.589595
