19
Iteration:  3193charge 0 multiplicity 1
 O         0.547000         0.103538         0.274583
 C        -0.759867         0.387874         0.796571
 C        -2.134424         0.273133         0.053992
 C        -2.700693         1.338344         0.935941
 C        -2.628712         1.009271         2.558222
 C        -1.512679         2.032394         2.704579
 C        -1.230838         1.868951         1.211096
 O        -2.170727        -0.424958         2.641110
 C        -0.883905        -0.456820         2.094702
 H         0.432900        -0.244206        -0.645360
 H        -2.015607         0.702045        -1.016172
 H        -2.746615        -0.721802         0.137929
 H        -3.539072         1.854898         0.504753
 H        -3.456485         1.176653         3.235487
 H        -1.864753         3.044791         2.979834
 H        -0.723033         1.782963         3.392376
 H        -0.929736         2.697062         0.553267
 H        -0.190773        -0.200447         2.886730
 H        -0.667336        -1.503973         1.624947
