19
Iteration:  1883charge 0 multiplicity 1
 O         0.443339         0.005536         0.093148
 C        -0.703258         0.351285         0.810134
 C        -2.152743         0.280911         0.036151
 C        -2.591166         1.352520         0.972055
 C        -2.745490         0.946176         2.479942
 C        -1.606407         2.043367         2.752040
 C        -1.161828         1.827892         1.284969
 O        -2.100356        -0.307443         2.744602
 C        -0.866897        -0.424962         2.131750
 H         0.253474         0.488512        -0.762426
 H        -2.029699         0.692187        -0.995697
 H        -2.537943        -0.761008         0.022869
 H        -3.293435         2.235532         0.744460
 H        -3.777979         0.714723         2.866741
 H        -1.897983         3.060039         2.916474
 H        -0.797152         1.823986         3.476518
 H        -0.656140         2.639690         0.760078
 H        -0.034591        -0.205546         2.690482
 H        -0.678614        -1.504739         1.837651
