19
Iteration:   246
 O         0.448848         0.115438         0.069857
 C        -0.727615         0.453045         0.822459
 C        -2.096089         0.222753         0.123473
 C        -2.537754         1.493127         0.956583
 C        -2.672385         0.954745         2.518986
 C        -1.586354         1.887327         2.859234
 C        -1.089714         1.880495         1.302617
 O        -2.253071        -0.397017         2.587354
 C        -0.870154        -0.479338         2.091710
 H         0.104910        -0.101424        -0.827493
 H        -1.982479         0.296673        -0.927201
 H        -2.635982        -0.756708         0.187224
 H        -3.188714         2.292064         0.417511
 H        -3.589171         1.031732         3.155540
 H        -2.102230         2.841059         2.914445
 H        -1.073464         1.777620         3.797255
 H        -0.589399         2.679891         0.656472
 H        -0.188595        -0.147177         2.903321
 H        -0.820193        -1.469671         1.667042
