19
Iteration:  3527
 O         0.402690         0.110213         0.218736
 C        -0.844979         0.418988         0.840206
 C        -2.077232         0.159598         0.075122
 C        -2.680269         1.308409         0.922356
 C        -2.618512         0.933490         2.493436
 C        -1.493579         2.017306         2.582059
 C        -1.244533         1.912593         1.099223
 O        -2.111989        -0.374330         2.740351
 C        -0.810723        -0.426556         2.262911
 H         0.197950         0.361770        -0.702652
 H        -1.754564         0.629276        -0.825427
 H        -2.692401        -0.755248         0.034828
 H        -3.474664         2.011935         0.597072
 H        -3.522662         1.076013         2.982891
 H        -1.969516         2.937933         2.877681
 H        -0.635557         1.840327         3.209817
 H        -0.751685         2.711678         0.639457
 H        -0.128008        -0.052139         3.143244
 H        -0.579741        -1.542185         1.958871
