19
Iteration:  2317charge 0 multiplicity 1
 O         0.409960         0.075647         0.066901
 C        -0.802872         0.321447         0.858778
 C        -2.194039         0.197575         0.117254
 C        -2.634599         1.346374         0.972402
 C        -2.655502         0.980764         2.487273
 C        -1.571088         1.973590         2.672402
 C        -1.027406         1.844653         1.264840
 O        -2.226690        -0.324751         2.622822
 C        -0.766052        -0.402854         2.245952
 H         0.614187         0.764593        -0.583499
 H        -2.091072         0.482522        -0.972885
 H        -2.776534        -0.743539        -0.005913
 H        -3.392858         2.044499         0.581660
 H        -3.629129         0.988249         2.944589
 H        -2.016034         2.999453         2.883891
 H        -0.876748         1.891050         3.525067
 H        -0.436400         2.683524         0.866150
 H         0.026676         0.000017         2.897156
 H        -0.436939        -1.387176         1.961071
