19
Iteration:  2378
 O         0.534822         0.183449         0.280062
 C        -0.793265         0.353533         0.771039
 C        -2.092552         0.232554        -0.018358
 C        -2.722345         1.347975         1.003256
 C        -2.632929         0.992139         2.599259
 C        -1.469248         2.104302         2.667607
 C        -1.201679         1.783622         1.180523
 O        -2.138821        -0.287138         2.851524
 C        -0.953393        -0.594598         1.930110
 H         0.463400         0.162278        -0.697466
 H        -1.883908         0.661145        -1.009720
 H        -2.405678        -0.813539        -0.198641
 H        -3.504467         2.016252         0.597931
 H        -3.697422         1.008495         3.078378
 H        -1.920405         3.056428         2.876658
 H        -0.690223         1.863243         3.429632
 H        -0.800988         2.473627         0.407482
 H        -0.103179        -0.820164         2.646361
 H        -1.300457        -1.692072         1.737646
