19
Iteration:  3843charge 0 multiplicity 1
 O         0.499201         0.149787         0.118523
 C        -0.730570         0.374653         0.759223
 C        -2.159993         0.109720         0.114574
 C        -2.705025         1.276339         1.022760
 C        -2.647112         0.973044         2.580202
 C        -1.569429         2.157144         2.683785
 C        -1.306597         1.811058         1.099946
 O        -2.073308        -0.324810         2.694666
 C        -0.804933        -0.387631         2.155377
 H         0.866295        -0.734042         0.137731
 H        -2.215393         0.409416        -0.948469
 H        -2.600040        -0.980380         0.119341
 H        -3.587253         1.904299         0.691836
 H        -3.659287         0.909585         2.896297
 H        -2.145216         3.094114         2.578471
 H        -0.771793         1.983060         3.419400
 H        -0.877245         2.670864         0.572967
 H         0.000657         0.029366         2.830400
 H        -0.634450        -1.367905         2.258852
