19
Iteration:  3134
 O         0.515079         0.273857         0.002678
 C        -0.731370         0.323606         0.846608
 C        -2.091491         0.200282         0.139323
 C        -2.622379         1.347281         1.042447
 C        -2.690982         1.007181         2.465646
 C        -1.632100         2.121658         2.717714
 C        -1.123432         1.755320         1.340981
 O        -2.195057        -0.306815         2.678248
 C        -0.907213        -0.601281         2.039015
 H         0.901191        -0.623107         0.023045
 H        -2.122339         0.438524        -0.927344
 H        -2.485518        -0.797285         0.223994
 H        -3.357778         2.105662         0.598371
 H        -3.622460         0.982190         3.090258
 H        -2.199841         3.076398         2.779079
 H        -0.775528         2.131385         3.457530
 H        -0.773360         2.519613         0.641486
 H        -0.184191        -0.512328         2.906708
 H        -0.809213        -1.747852         1.767488
