19
Iteration:  1567
 O         0.502164         0.247682         0.354535
 C        -0.802262         0.306910         0.785499
 C        -2.167148         0.177621         0.017026
 C        -2.632334         1.333860         0.968963
 C        -2.573246         1.017256         2.517351
 C        -1.447333         2.010768         2.668526
 C        -1.256058         1.860351         1.135383
 O        -2.139533        -0.285650         2.782705
 C        -0.971206        -0.652799         2.000800
 H         0.637904         0.615638        -0.553789
 H        -2.087624         0.505452        -1.006248
 H        -2.772656        -0.729164        -0.020943
 H        -3.581259         1.833094         0.667947
 H        -3.470443         1.205342         3.029566
 H        -1.891227         3.041871         2.919506
 H        -0.531335         1.768080         3.301361
 H        -0.832515         2.708269         0.575900
 H         0.043300        -0.426985         2.618235
 H        -1.016332        -1.676287         1.722278
