19
Iteration:   771
 O         0.402374         0.203412         0.133228
 C        -0.781641         0.350983         0.894133
 C        -2.127154         0.322196         0.038722
 C        -2.629755         1.459791         0.946749
 C        -2.668896         0.907056         2.493781
 C        -1.431777         2.043271         2.763142
 C        -1.180790         1.833480         1.305047
 O        -2.181291        -0.400168         2.578667
 C        -0.922071        -0.596019         2.125308
 H         0.976542        -0.584164         0.167450
 H        -1.841254         0.812976        -0.891695
 H        -2.751653        -0.557486        -0.346400
 H        -3.345512         2.158841         0.726675
 H        -3.669658         1.000406         2.972180
 H        -1.809797         3.057853         3.035405
 H        -0.562970         1.568543         3.299339
 H        -0.629113         2.538431         0.633896
 H        -0.103808        -0.157961         2.827191
 H        -0.799134        -1.650726         1.941126
