19
Iteration:  2223charge 0 multiplicity 1
 O         0.528822         0.061789         0.242335
 C        -0.846054         0.376523         0.810098
 C        -2.095254         0.287878         0.010928
 C        -2.718873         1.258279         0.978338
 C        -2.610315         1.002569         2.504653
 C        -1.479489         2.060434         2.678014
 C        -1.239729         1.854228         1.202465
 O        -2.158429        -0.339239         2.783513
 C        -0.887089        -0.499405         2.047884
 H         0.530314         0.406175        -0.659606
 H        -1.997840         0.638352        -0.982250
 H        -2.551624        -0.691430        -0.092619
 H        -3.560257         1.904901         0.649463
 H        -3.438462         1.199669         3.219101
 H        -1.872639         3.042480         2.844085
 H        -0.711216         1.898654         3.442424
 H        -0.800739         2.630592         0.541544
 H        -0.015140        -0.245214         2.583203
 H        -0.883494        -1.551909         1.822322
