19
Iteration:  3748charge 0 multiplicity 1
 O         0.442456         0.189997         0.323071
 C        -0.793366         0.378101         0.864890
 C        -2.217801         0.118792         0.114606
 C        -2.665173         1.262233         0.877708
 C        -2.555547         0.970946         2.514472
 C        -1.480268         2.131511         2.611876
 C        -1.320451         1.881389         1.043159
 O        -2.101999        -0.382578         2.757096
 C        -0.799826        -0.503337         2.108438
 H         0.538435         0.870873        -0.377678
 H        -2.239637         0.306988        -1.002277
 H        -2.848069        -0.756586         0.326663
 H        -3.630162         1.793634         0.641565
 H        -3.469904         1.047947         3.165747
 H        -1.945777         3.152449         2.678288
 H        -0.569560         1.918877         3.209995
 H        -0.763335         2.627132         0.416677
 H        -0.064392        -0.304501         2.861390
 H        -0.362225        -1.569688         1.743677
