19
Iteration:  1307charge 0 multiplicity 1
 O         0.444711         0.088412         0.227179
 C        -0.827422         0.328691         0.829513
 C        -2.037405         0.299962         0.014566
 C        -2.695179         1.333574         0.951684
 C        -2.657657         0.929456         2.515480
 C        -1.516164         2.142080         2.694966
 C        -1.222234         1.853429         1.237784
 O        -2.127401        -0.347895         2.771160
 C        -0.857276        -0.525026         2.037625
 H         0.400084         0.064487        -0.725823
 H        -1.820775         0.789548        -0.932991
 H        -2.528684        -0.660939        -0.314850
 H        -3.620398         1.952709         0.724485
 H        -3.603158         0.876338         3.107177
 H        -1.717167         3.208627         2.865506
 H        -0.665025         1.940860         3.354608
 H        -0.879087         2.606606         0.520293
 H         0.004632        -0.390805         2.730781
 H        -0.785179        -1.698453         1.888406
