19
Iteration:  1031
 O         0.469254         0.195873         0.227796
 C        -0.818090         0.359087         0.799212
 C        -2.138381         0.286374        -0.021497
 C        -2.657788         1.337635         0.922355
 C        -2.619065         0.975768         2.487197
 C        -1.545548         2.018214         2.729113
 C        -1.137420         1.869314         1.225312
 O        -2.096117        -0.379537         2.838599
 C        -0.929906        -0.543340         2.011640
 H         0.364431        -0.261296        -0.643466
 H        -2.069538         0.722650        -0.973610
 H        -2.576821        -0.730755        -0.154784
 H        -3.505506         2.068807         0.651078
 H        -3.557078         1.129440         3.039784
 H        -1.933408         2.989162         2.906627
 H        -0.839028         1.700646         3.479703
 H        -0.546290         2.605235         0.868907
 H        -0.019271        -0.399440         2.683521
 H        -1.026833        -1.634573         1.808218
