19
Iteration:  3919charge 0 multiplicity 1
 O         0.498517         0.212337         0.131339
 C        -0.790605         0.359725         0.766658
 C        -2.099401         0.128996         0.092112
 C        -2.667539         1.231747         1.033142
 C        -2.683219         0.965878         2.586936
 C        -1.616626         2.172739         2.614406
 C        -1.227623         1.765156         1.167841
 O        -2.049606        -0.259144         2.777096
 C        -0.844146        -0.452506         2.084181
 H         0.803041        -0.668292        -0.189861
 H        -2.144921         0.153684        -0.982481
 H        -2.719686        -0.870312         0.230935
 H        -3.513774         1.759559         0.498249
 H        -3.493829         1.064449         3.304125
 H        -2.180548         3.150649         2.560558
 H        -0.891774         2.259736         3.471704
 H        -0.921334         2.561431         0.449766
 H        -0.018811        -0.190640         2.765535
 H        -0.841924        -1.637963         1.777595
