19
Iteration:  4156
 O         0.443442         0.207331         0.291362
 C        -0.807646         0.425880         0.810894
 C        -2.123822         0.123760         0.110721
 C        -2.758574         1.223543         0.954604
 C        -2.569326         0.941476         2.566152
 C        -1.464027         2.155756         2.551185
 C        -1.358049         1.854831         1.009342
 O        -2.051757        -0.358272         2.814998
 C        -0.798402        -0.417658         2.111956
 H         0.305805        -0.589438        -0.276538
 H        -2.201164         0.301827        -1.038550
 H        -2.556753        -0.896597         0.191281
 H        -3.722916         1.724012         0.720449
 H        -3.444996         1.017168         3.256369
 H        -1.941363         3.142209         2.877723
 H        -0.563320         1.994208         3.305064
 H        -0.834533         2.467067         0.168298
 H         0.086561        -0.131484         2.536664
 H        -0.730136        -1.412572         1.749351
