19
Iteration:  2465charge 0 multiplicity 1
 O         0.364922        -0.032382         0.067669
 C        -0.783465         0.396721         0.868596
 C        -2.152834         0.248499         0.066730
 C        -2.637340         1.392465         0.897878
 C        -2.680856         0.959652         2.517106
 C        -1.589195         2.072746         2.708391
 C        -1.121116         1.868650         1.298305
 O        -2.099470        -0.407792         2.692394
 C        -0.802209        -0.450628         2.156260
 H         0.890141         0.736081        -0.243760
 H        -1.844944         0.572194        -0.888032
 H        -2.619559        -0.720721         0.073104
 H        -3.359006         2.090698         0.401019
 H        -3.686481         1.207565         3.040642
 H        -2.087950         3.047092         2.787801
 H        -0.949740         1.824947         3.627806
 H        -0.679128         2.741013         0.782988
 H        -0.020594         0.030486         2.786615
 H        -0.586294        -1.472901         1.871318
