19
Iteration:  1931charge 0 multiplicity 1
 O         0.416559         0.067122         0.204267
 C        -0.782561         0.453098         0.816880
 C        -2.177806         0.207934         0.116701
 C        -2.569224         1.388765         0.961414
 C        -2.624954         0.963270         2.468136
 C        -1.468138         2.005025         2.649709
 C        -1.196553         1.891648         1.217549
 O        -2.224599        -0.402706         2.675995
 C        -0.792729        -0.525738         2.118985
 H         0.508586         0.756639        -0.449987
 H        -2.017425         0.590853        -0.881274
 H        -2.780557        -0.702880         0.191064
 H        -3.358182         2.069683         0.691224
 H        -3.549471         1.035113         3.052516
 H        -2.143564         2.968302         2.822099
 H        -0.919772         1.866226         3.588030
 H        -0.928423         2.761662         0.665400
 H         0.079632        -0.176596         2.785870
 H        -0.515436        -1.532242         1.819539
