19
Iteration:  4183charge 0 multiplicity 1
 O         0.470996         0.193446         0.232154
 C        -0.799213         0.338079         0.779562
 C        -2.197005         0.070134         0.140294
 C        -2.734264         1.266012         0.911403
 C        -2.591712         0.941483         2.500453
 C        -1.516787         2.130791         2.612225
 C        -1.326290         1.931171         1.078990
 O        -2.047319        -0.280663         2.834790
 C        -0.737190        -0.478349         2.139638
 H         0.343772        -0.384465        -0.561505
 H        -2.110596         0.211549        -0.906408
 H        -2.773911        -0.904230         0.182366
 H        -3.695198         1.738797         0.707587
 H        -3.506045         0.924650         3.112662
 H        -1.962241         3.081613         2.809607
 H        -0.785390         2.061645         3.359351
 H        -0.872401         2.721066         0.467316
 H         0.215457        -0.009465         2.569563
 H        -0.694605        -1.546152         1.806687
