19
Iteration:   781charge 0 multiplicity 1
 O         0.416339         0.118042         0.080404
 C        -0.804697         0.329554         0.854808
 C        -2.087967         0.427807        -0.037035
 C        -2.656509         1.427843         0.961242
 C        -2.684348         0.945652         2.497460
 C        -1.511438         2.031142         2.775711
 C        -1.127949         1.854339         1.326242
 O        -2.214517        -0.450231         2.670639
 C        -0.840735        -0.512637         2.065836
 H         0.732751        -0.784935         0.352781
 H        -1.746788         0.969154        -0.916286
 H        -2.490811        -0.620905        -0.007882
 H        -3.560251         1.942880         0.712095
 H        -3.684118         1.013904         3.060019
 H        -1.856978         3.038971         3.006090
 H        -0.751519         1.831168         3.574283
 H        -0.470999         2.568285         0.792463
 H        -0.047091        -0.230552         2.808138
 H        -0.693722        -1.571453         1.823226
