19
Iteration:  2099
 O         0.562930         0.173478         0.304838
 C        -0.793312         0.280228         0.749361
 C        -2.180814         0.188305        -0.026327
 C        -2.696967         1.330690         1.004433
 C        -2.659318         1.006786         2.553472
 C        -1.431106         2.123594         2.644856
 C        -1.225277         1.887277         1.206361
 O        -2.087207        -0.341217         2.774801
 C        -0.968441        -0.585494         2.015798
 H         0.709942         0.382004        -0.614857
 H        -2.091563         0.722676        -0.974751
 H        -2.661046        -0.791053        -0.001096
 H        -3.649760         1.874272         0.759412
 H        -3.507072         1.156949         3.239424
 H        -2.140830         3.027182         2.791136
 H        -0.644129         1.793780         3.398960
 H        -0.790273         2.664841         0.503656
 H        -0.149168        -0.382612         2.635472
 H        -1.114539        -1.656946         1.782474
