19
Iteration:  1911
 O         0.369156        -0.060028         0.086619
 C        -0.713023         0.349764         0.865820
 C        -2.105843         0.271134         0.090461
 C        -2.699797         1.374759         0.908600
 C        -2.646547         0.954756         2.518574
 C        -1.587923         2.078785         2.835138
 C        -1.155909         1.914366         1.237400
 O        -2.160769        -0.362071         2.601564
 C        -0.802484        -0.444555         2.125409
 H         0.547636         0.734321        -0.464621
 H        -1.940402         0.510364        -0.959094
 H        -2.387458        -0.747989         0.168134
 H        -3.496323         1.984228         0.671106
 H        -3.569777         0.802644         2.987907
 H        -2.075560         3.092168         3.038090
 H        -0.840788         1.832002         3.624863
 H        -0.484963         2.663667         0.720856
 H         0.022740         0.225954         2.796581
 H        -0.474096        -1.457787         1.984746
