19
Iteration:  2597
 O         0.433584         0.018281        -0.023254
 C        -0.716024         0.334098         0.873063
 C        -2.026930         0.147597         0.061539
 C        -2.658319         1.436452         0.960264
 C        -2.647139         0.971535         2.490876
 C        -1.665889         2.141956         2.750980
 C        -1.187992         1.858828         1.348666
 O        -2.114561        -0.317388         2.757428
 C        -0.893240        -0.563196         2.055781
 H         0.824671         0.768938        -0.524138
 H        -2.046558         0.269406        -1.044519
 H        -2.628743        -0.808457         0.152365
 H        -3.315623         2.208011         0.514010
 H        -3.658600         1.043723         3.075292
 H        -2.151314         3.183580         2.896097
 H        -0.972968         2.037529         3.715732
 H        -0.663028         2.748278         0.960856
 H        -0.093449        -0.178230         2.804759
 H        -0.748508        -1.539015         1.767490
