19
Iteration:  2333charge 0 multiplicity 1
 O         0.373404         0.005980         0.173579
 C        -0.778635         0.352004         0.869475
 C        -2.109037         0.264381         0.075123
 C        -2.630176         1.433054         0.905177
 C        -2.678974         0.979437         2.460398
 C        -1.543268         2.060080         2.764465
 C        -1.235563         1.825984         1.219176
 O        -2.079933        -0.386528         2.661225
 C        -0.811131        -0.473442         2.116857
 H         0.440200         0.604925        -0.622099
 H        -1.972922         0.498285        -0.964945
 H        -2.663644        -0.667651         0.139347
 H        -3.369992         2.179782         0.605377
 H        -3.565228         1.097118         3.136096
 H        -1.931317         3.064454         2.850762
 H        -0.796437         1.880178         3.593374
 H        -0.730857         2.584896         0.605281
 H        -0.058007        -0.012742         2.862965
 H        -0.504556        -1.563915         2.069473
