19
Iteration:  2572
 O         0.416762         0.053779         0.130297
 C        -0.753419         0.334296         0.856469
 C        -2.128191         0.230391         0.102598
 C        -2.581730         1.333893         0.987044
 C        -2.659489         0.968197         2.485689
 C        -1.564991         2.008147         2.738067
 C        -1.174580         1.826490         1.214881
 O        -2.128618        -0.300667         2.684777
 C        -0.862126        -0.428371         2.103816
 H         0.460233         0.551846        -0.696827
 H        -2.139973         0.827350        -0.903855
 H        -2.771050        -0.714431        -0.141015
 H        -3.348379         1.952702         0.450751
 H        -3.732513         1.008556         2.863136
 H        -2.099141         2.962230         2.949100
 H        -0.874504         1.880259         3.660500
 H        -0.656339         2.636032         0.698333
 H        -0.056923        -0.055148         2.841230
 H        -0.591475        -1.498343         1.939274
