19
Iteration:   906
 O         0.429997         0.086956         0.213742
 C        -0.852131         0.393658         0.822471
 C        -2.073363         0.294712         0.045497
 C        -2.636302         1.414022         0.920414
 C        -2.641072         0.975890         2.493595
 C        -1.563045         2.051013         2.823156
 C        -1.134301         1.903701         1.282364
 O        -2.128898        -0.418227         2.690109
 C        -0.851884        -0.574196         1.982145
 H         0.469643         0.016494        -0.772857
 H        -2.014076         0.717630        -1.018959
 H        -2.690277        -0.581039        -0.070607
 H        -3.407367         2.086820         0.531299
 H        -3.586692         0.986056         3.012218
 H        -2.097791         3.059991         3.162328
 H        -0.821398         1.846044         3.686406
 H        -0.506609         2.698458         0.774526
 H        -0.012172        -0.563226         2.770256
 H        -1.020432        -1.590249         1.593928
