19
Iteration:  3900charge 0 multiplicity 1
 O         0.480427         0.364685         0.188977
 C        -0.741268         0.339730         0.849445
 C        -2.201153         0.016117         0.127351
 C        -2.709545         1.238986         0.948312
 C        -2.569860         1.046383         2.484252
 C        -1.569835         2.168352         2.574959
 C        -1.256687         1.814003         1.131782
 O        -2.070318        -0.285455         2.853645
 C        -0.841542        -0.637676         2.085503
 H         0.408884        -0.442488        -0.376218
 H        -2.119927         0.400578        -0.912932
 H        -2.629212        -1.048050        -0.024000
 H        -3.513942         1.932427         0.578526
 H        -3.566761         1.166352         2.941960
 H        -2.068930         3.182013         2.756428
 H        -0.816419         2.168914         3.422005
 H        -0.641105         2.429268         0.508710
 H         0.072719        -0.359284         2.719097
 H        -0.900892        -1.633609         1.854536
