19
Iteration:  2798
 O         0.560097         0.252985         0.338141
 C        -0.828033         0.293679         0.739051
 C        -2.217653         0.175903         0.016504
 C        -2.662910         1.349356         1.037380
 C        -2.551472         1.053793         2.509680
 C        -1.427188         2.084192         2.647496
 C        -1.243619         1.772011         1.218187
 O        -2.161532        -0.342997         2.722699
 C        -0.952115        -0.639419         1.980283
 H         0.645125         1.029052        -0.264715
 H        -2.288659         0.599962        -0.964502
 H        -2.610817        -0.811543         0.152551
 H        -3.457341         2.104072         0.814733
 H        -3.521726         1.202063         2.967954
 H        -1.878760         3.089769         2.985866
 H        -0.674043         1.664539         3.355279
 H        -0.916109         2.630333         0.536448
 H        -0.081735        -0.547132         2.578464
 H        -0.890507        -1.713295         1.648697
