19
Iteration:   179charge 0 multiplicity 1
 O         0.567884         0.298919         0.254284
 C        -0.747599         0.412629         0.800744
 C        -2.233136         0.308421        -0.051969
 C        -2.696663         1.331108         0.934873
 C        -2.666438         1.001500         2.492645
 C        -1.397201         1.908029         2.817322
 C        -1.146497         1.846379         1.217211
 O        -2.174931        -0.331429         2.773621
 C        -0.977612        -0.612988         1.930408
 H         0.765455        -0.625773         0.421572
 H        -2.306814         0.692512        -0.999038
 H        -2.768402        -0.727021        -0.165746
 H        -3.610221         1.990476         0.722786
 H        -3.673129         1.096463         3.042345
 H        -1.544695         2.876087         3.193790
 H        -0.710599         1.345063         3.426582
 H        -0.615251         2.664917         0.709281
 H        -0.097072        -0.706850         2.660857
 H        -1.237374        -1.528675         1.408674
