19
Iteration:  4778
 O         0.395988         0.103333        -0.048233
 C        -0.709878         0.362639         0.827727
 C        -2.153890         0.013546         0.196975
 C        -2.618471         1.236542         0.996716
 C        -2.753510         1.075491         2.447161
 C        -1.724402         2.141482         2.732524
 C        -1.166294         1.827845         1.204479
 O        -2.044061        -0.264655         2.775414
 C        -0.726117        -0.441265         2.088035
 H         1.087268         0.313246         0.595827
 H        -1.949923         0.178049        -0.903809
 H        -2.671104        -0.919098         0.217578
 H        -3.441722         1.969523         0.579082
 H        -3.732043         1.120257         3.050356
 H        -2.159205         3.157590         2.681764
 H        -1.053156         1.946386         3.635444
 H        -0.736747         2.667037         0.598123
 H         0.152155        -0.155472         2.689776
 H        -0.792380        -1.408287         1.851443
