19
Iteration:  4389
 O         0.385430         0.119935         0.131262
 C        -0.781055         0.368158         0.821824
 C        -2.181969         0.109339         0.082012
 C        -2.719057         1.285757         0.901874
 C        -2.686936         0.947891         2.479176
 C        -1.548151         2.114214         2.620570
 C        -1.322346         1.926609         1.098996
 O        -2.022097        -0.349600         2.825036
 C        -0.658621        -0.388787         2.226548
 H         0.565179        -0.814263         0.279617
 H        -2.073372         0.416723        -0.949306
 H        -2.493163        -1.004801         0.082486
 H        -3.616012         1.830820         0.573552
 H        -3.627250         1.077791         3.026627
 H        -2.010477         3.156019         2.773949
 H        -0.724593         1.838571         3.376599
 H        -0.698471         2.752888         0.551500
 H         0.039732         0.310323         2.727974
 H        -0.296431        -1.360482         2.045107
