19
Iteration:    60
 O         0.465004         0.204006         0.239730
 C        -0.795887         0.341566         0.879221
 C        -2.136160         0.299882        -0.032334
 C        -2.657660         1.423237         0.943570
 C        -2.581557         0.967739         2.569631
 C        -1.415034         2.133212         2.784312
 C        -1.184219         1.866019         1.298369
 O        -2.241308        -0.474219         2.626658
 C        -0.900070        -0.718962         1.991249
 H         0.366480         0.584869        -0.673410
 H        -1.790235         0.707386        -0.955315
 H        -2.675812        -0.604853        -0.299035
 H        -3.445528         2.241461         0.625660
 H        -3.505736         1.086438         3.204673
 H        -1.963655         3.089375         2.904611
 H        -0.643190         1.960266         3.552827
 H        -0.659480         2.638402         0.709780
 H        -0.281698        -0.495077         2.768165
 H        -0.830940        -1.759443         1.658145
