19
Iteration:  2879
 O         0.403962        -0.006128         0.215433
 C        -0.812462         0.441282         0.815304
 C        -2.129794         0.291770         0.141689
 C        -2.637779         1.474870         0.971735
 C        -2.658701         0.926987         2.518488
 C        -1.575459         1.979804         2.768177
 C        -1.113135         1.920867         1.201434
 O        -2.132593        -0.433228         2.551737
 C        -0.784301        -0.442250         2.104360
 H         0.398800         0.128010        -0.748014
 H        -2.262811         0.468989        -0.941225
 H        -2.548283        -0.732940         0.209593
 H        -3.516961         2.013005         0.578843
 H        -3.636016         0.865863         3.010227
 H        -2.057182         2.930873         3.067918
 H        -0.736495         1.868014         3.523740
 H        -0.748988         2.689329         0.496803
 H        -0.200151         0.134866         2.780650
 H        -0.389364        -1.576435         2.053763
