19
Iteration:  1443
 O         0.471088         0.182715         0.226333
 C        -0.753898         0.355193         0.867971
 C        -2.057001         0.201355         0.040709
 C        -2.701892         1.303769         0.932017
 C        -2.640177         1.024143         2.564521
 C        -1.546884         2.011111         2.701624
 C        -1.200611         1.874514         1.125574
 O        -2.120566        -0.312158         2.757667
 C        -0.923953        -0.561679         2.056185
 H         0.348548         0.333109        -0.754427
 H        -1.970373         0.473110        -0.998669
 H        -2.629198        -0.679650         0.024551
 H        -3.628589         1.843856         0.639696
 H        -3.641785         1.106972         3.066985
 H        -1.736979         3.082566         2.954138
 H        -0.798432         2.008250         3.554505
 H        -0.577818         2.502418         0.583926
 H         0.031574        -0.638751         2.761952
 H        -1.006851        -1.574873         1.529343
