19
Iteration:  2087
 O         0.507357         0.194794         0.258703
 C        -0.789935         0.345659         0.848520
 C        -2.123256         0.188158         0.051179
 C        -2.687960         1.359805         0.993241
 C        -2.618746         1.044791         2.556804
 C        -1.537719         2.096939         2.689261
 C        -1.214941         1.749196         1.130028
 O        -2.151386        -0.326013         2.746321
 C        -0.895367        -0.617806         2.014394
 H         0.381390         0.476128        -0.678668
 H        -2.034507         0.539657        -0.987526
 H        -2.677500        -0.737517        -0.038921
 H        -3.312207         2.156775         0.638714
 H        -3.504577         1.005152         3.153993
 H        -1.645045         3.228067         2.858890
 H        -0.729934         1.929299         3.466381
 H        -0.829271         2.496833         0.429928
 H        -0.074834        -0.498136         2.651553
 H        -0.751472        -1.614569         1.595584
