19
Iteration:  1544
 O         0.509713         0.215198         0.331924
 C        -0.816945         0.346743         0.851884
 C        -2.160038         0.296510        -0.092900
 C        -2.716612         1.295927         0.969312
 C        -2.647742         0.999044         2.560647
 C        -1.394838         2.098255         2.614704
 C        -1.252043         1.731550         1.190552
 O        -2.101822        -0.315369         2.823134
 C        -0.921671        -0.622450         2.032090
 H         0.563700         0.591453        -0.538586
 H        -2.031868         0.749091        -1.071040
 H        -2.482141        -0.697600        -0.346622
 H        -3.645827         1.876591         0.615480
 H        -3.563638         1.118359         3.127018
 H        -1.879841         3.156301         2.557668
 H        -0.658792         1.812333         3.510186
 H        -0.814592         2.408196         0.448875
 H         0.132773        -0.678569         2.677960
 H        -1.121834        -1.595131         1.599896
