19
Iteration:  1660charge 0 multiplicity 1
 O         0.477120         0.092441         0.189513
 C        -0.770019         0.419930         0.861420
 C        -2.140332         0.208139         0.057566
 C        -2.645175         1.345632         0.876957
 C        -2.623550         0.972971         2.505074
 C        -1.557413         2.078547         2.737926
 C        -1.235767         1.886490         1.245943
 O        -2.076728        -0.292248         2.735106
 C        -0.903816        -0.595082         2.081502
 H         0.392057         0.372491        -0.732503
 H        -1.970108         0.404168        -1.072142
 H        -2.584338        -0.808890        -0.124550
 H        -3.595875         1.890797         0.818971
 H        -3.647849         1.073012         3.035741
 H        -1.948298         3.105509         2.955917
 H        -0.842149         1.718911         3.486942
 H        -0.578839         2.625578         0.597217
 H        -0.058182        -0.443885         2.865905
 H        -0.952408        -1.653320         1.546161
