19
Iteration:   336charge 0 multiplicity 1
 O         0.523554         0.101429         0.218091
 C        -0.792517         0.441214         0.843766
 C        -2.129474         0.266927         0.004313
 C        -2.696245         1.389038         0.954158
 C        -2.662394         0.988387         2.501215
 C        -1.477512         1.942192         2.729173
 C        -1.221868         1.850595         1.274685
 O        -2.130806        -0.302557         2.713001
 C        -0.965930        -0.616912         1.964982
 H         1.242882         0.720609         0.169302
 H        -2.062878         0.650364        -1.033552
 H        -2.545636        -0.679186        -0.002592
 H        -3.589903         2.081872         0.590658
 H        -3.480376         1.047922         3.163437
 H        -1.709617         2.970010         3.040575
 H        -0.754165         1.630206         3.410677
 H        -0.623550         2.742865         0.878886
 H        -0.158252        -0.576858         2.656524
 H        -1.150609        -1.624874         1.522225
