19
Iteration:   255charge 0 multiplicity 1
 O         0.462966         0.123312         0.087264
 C        -0.773194         0.444755         0.805217
 C        -2.111636         0.240984         0.034955
 C        -2.540587         1.397993         0.899782
 C        -2.686088         0.932988         2.486133
 C        -1.536434         1.909815         2.869763
 C        -1.058117         1.869046         1.346868
 O        -2.277788        -0.369942         2.646621
 C        -0.879739        -0.416474         2.068254
 H         0.143175         0.130246        -0.840437
 H        -2.178212         0.319988        -1.018860
 H        -2.630684        -0.691317         0.573502
 H        -3.303227         2.034770         0.530943
 H        -3.677435         1.143745         3.027338
 H        -1.963950         2.866838         3.046615
 H        -0.918487         1.479603         3.668240
 H        -0.514115         2.754860         1.007511
 H        -0.110357        -0.349508         2.884643
 H        -0.675502        -1.406123         1.802884
