19
Iteration:  3583
 O         0.446588         0.156138         0.156990
 C        -0.831496         0.294172         0.799049
 C        -2.143951         0.183074         0.042714
 C        -2.677837         1.300296         0.922291
 C        -2.666976         1.009160         2.471660
 C        -1.604925         2.136000         2.631746
 C        -1.174847         1.751177         1.173336
 O        -2.064185        -0.285311         2.874737
 C        -0.794446        -0.529500         2.090811
 H         0.840978         1.055027         0.200863
 H        -2.065772         0.191132        -1.030936
 H        -2.805327        -0.696226         0.311688
 H        -3.418997         2.074675         0.670318
 H        -3.592590         1.043610         3.000726
 H        -2.142524         3.064392         2.666937
 H        -0.923625         1.985687         3.442780
 H        -0.691161         2.522734         0.602379
 H         0.188519        -0.340301         2.781036
 H        -0.670610        -1.685041         1.829367
