19
Iteration:    29charge 0 multiplicity 1
 O         0.568166         0.200437         0.252499
 C        -0.806504         0.408618         0.760142
 C        -2.190690         0.254827         0.024788
 C        -2.682791         1.418866         0.952896
 C        -2.638864         0.953051         2.500946
 C        -1.351037         1.870327         2.758883
 C        -1.207395         1.853304         1.237842
 O        -2.229699        -0.375649         2.714720
 C        -0.998294        -0.543726         1.930316
 H         1.018339         1.047446         0.349684
 H        -2.218756         0.431947        -1.139525
 H        -2.655753        -0.705162         0.243024
 H        -3.492921         2.135962         0.663270
 H        -3.567572         1.090725         3.067533
 H        -1.504985         2.876271         3.261760
 H        -0.546751         1.443890         3.401506
 H        -0.749753         2.739493         0.722658
 H        -0.184472        -0.320807         2.738577
 H        -0.906334        -1.638005         1.783022
