19
Iteration:  2748
 O         0.394772         0.030767         0.120184
 C        -0.731668         0.329553         0.849926
 C        -2.091191         0.261822         0.051554
 C        -2.642816         1.329027         0.915077
 C        -2.709863         0.898836         2.465424
 C        -1.455880         2.101087         2.789599
 C        -1.239432         1.957738         1.257662
 O        -2.144327        -0.356663         2.694899
 C        -0.834570        -0.465184         2.130536
 H         0.308387         0.440933        -0.748580
 H        -1.768174         0.792334        -0.888771
 H        -2.737953        -0.647379         0.056316
 H        -3.541090         1.881632         0.544403
 H        -3.745922         0.930181         2.885046
 H        -1.919593         2.988458         3.094371
 H        -0.751171         1.706051         3.500410
 H        -0.616432         2.618997         0.683584
 H        -0.124126        -0.051364         2.914153
 H        -0.543265        -1.520980         1.962567
