19
Iteration:  4555
 O         0.462621         0.227190         0.062185
 C        -0.798264         0.329131         0.822768
 C        -2.147134         0.007631         0.160940
 C        -2.736860         1.220944         0.958376
 C        -2.703831         1.037054         2.485757
 C        -1.504813         2.102827         2.653396
 C        -1.234392         1.727070         1.118882
 O        -2.036045        -0.215524         2.838972
 C        -0.851293        -0.464705         2.108359
 H         0.870231         1.133587         0.092209
 H        -2.080121         0.452740        -0.801782
 H        -2.290819        -1.056917         0.039659
 H        -3.440594         1.853654         0.463524
 H        -3.558569         1.057665         3.167020
 H        -1.943209         3.172530         2.708690
 H        -0.919401         2.001513         3.542441
 H        -0.920493         2.479344         0.420006
 H         0.167576        -0.403024         2.854272
 H        -0.888499        -1.513358         1.954097
