19
Iteration:  4558charge 0 multiplicity 1
 O         0.475504         0.229789         0.092204
 C        -0.812943         0.334901         0.790529
 C        -2.150402         0.007950         0.143852
 C        -2.732784         1.218628         0.969946
 C        -2.703052         1.016446         2.519348
 C        -1.456600         2.106413         2.622646
 C        -1.265990         1.732520         1.132072
 O        -2.047977        -0.204243         2.838086
 C        -0.836742        -0.469129         2.108934
 H         0.724959         1.153512         0.075025
 H        -2.093931         0.365457        -1.001513
 H        -2.225984        -1.050489         0.050197
 H        -3.417746         1.936751         0.415651
 H        -3.655779         1.123268         3.182340
 H        -2.024671         3.092180         2.802997
 H        -0.885571         2.028959         3.571899
 H        -0.877083         2.391654         0.357999
 H         0.026951        -0.405943         2.849577
 H        -0.805485        -1.532280         1.925563
