19
Iteration:  1092charge 0 multiplicity 1
 O         0.448934         0.064493         0.154536
 C        -0.726015         0.384612         0.803477
 C        -2.200915         0.250365         0.136799
 C        -2.623680         1.399943         0.979745
 C        -2.630821         0.937099         2.527394
 C        -1.543778         1.998321         2.687615
 C        -1.166887         1.790641         1.247280
 O        -2.174569        -0.388799         2.591270
 C        -0.876532        -0.429783         2.125136
 H         0.842207         0.931681        -0.113304
 H        -2.172035         0.450970        -1.029993
 H        -2.637712        -0.750433         0.243017
 H        -3.248899         2.237618         0.833272
 H        -3.624470         0.920979         3.046160
 H        -1.933303         3.060933         2.792585
 H        -0.811564         2.007223         3.551720
 H        -0.693006         2.703562         0.598048
 H        -0.165424        -0.041116         2.871918
 H        -0.621645        -1.434468         1.741738
