19
Iteration:  3262
 O         0.410974         0.153490         0.105209
 C        -0.815940         0.283011         0.837980
 C        -2.126836         0.254825        -0.031987
 C        -2.602133         1.307584         0.896236
 C        -2.705477         1.096715         2.470875
 C        -1.581045         2.019981         2.749983
 C        -1.133071         1.788578         1.248713
 O        -2.095733        -0.347808         2.808058
 C        -0.869656        -0.548742         2.104565
 H         0.818566         1.042205         0.078700
 H        -1.894414         0.738118        -1.036288
 H        -2.628409        -0.859012        -0.074247
 H        -3.320685         2.033168         0.480343
 H        -3.689136         1.037701         3.010297
 H        -1.851033         3.057567         3.030329
 H        -1.060901         1.683223         3.714872
 H        -0.554131         2.570314         0.732349
 H         0.054639        -0.091042         2.581635
 H        -0.808299        -1.648540         2.112579
