19
Iteration:  4228charge 0 multiplicity 1
 O         0.385115         0.199685        -0.021050
 C        -0.782767         0.345914         0.859042
 C        -2.058402         0.089548         0.169708
 C        -2.648230         1.268162         0.894085
 C        -2.631220         0.955393         2.475586
 C        -1.630943         2.177592         2.673456
 C        -1.217409         1.830809         1.147656
 O        -2.066963        -0.302612         2.840177
 C        -0.761188        -0.475397         2.251176
 H        -0.059584         0.031057        -0.885231
 H        -2.016772         0.169684        -0.898617
 H        -2.602286        -0.840523         0.377890
 H        -3.560028         1.654613         0.463588
 H        -3.609578         1.227923         2.857915
 H        -2.195587         3.041985         2.973178
 H        -0.856994         2.049240         3.357696
 H        -0.630176         2.470714         0.553833
 H        -0.034383         0.021044         2.996695
 H        -0.653885        -1.594374         2.012108
