19
Iteration:  3348charge 0 multiplicity 1
 O         0.576355         0.307323         0.075397
 C        -0.810667         0.287143         0.817679
 C        -2.167026         0.213645        -0.023641
 C        -2.655618         1.277972         0.956998
 C        -2.691052         0.959643         2.548619
 C        -1.508917         2.056890         2.749181
 C        -1.187770         1.769115         1.201670
 O        -2.212992        -0.283819         2.839171
 C        -0.876173        -0.513578         2.095531
 H         0.924791        -0.597240         0.020798
 H        -1.902166         0.529695        -1.037838
 H        -2.611645        -0.767237        -0.227329
 H        -3.439640         1.992119         0.713285
 H        -3.735230         1.199819         2.906378
 H        -1.928822         3.053303         2.779050
 H        -0.663764         1.807777         3.369574
 H        -0.581488         2.596540         0.786800
 H         0.056436        -0.261175         2.563376
 H        -1.064664        -1.646656         1.905601
