19
Iteration:  2729charge 0 multiplicity 1
 O         0.395499         0.043193         0.035082
 C        -0.763770         0.377934         0.835401
 C        -2.054235         0.240889        -0.018980
 C        -2.606312         1.368787         0.977190
 C        -2.692315         1.020382         2.505180
 C        -1.702786         1.998133         2.780237
 C        -1.127991         1.794168         1.309358
 O        -2.113094        -0.300670         2.736753
 C        -0.808123        -0.504478         2.137354
 H         0.117554         0.305626        -0.862547
 H        -1.776057         0.800126        -0.917904
 H        -2.417569        -0.818416         0.036758
 H        -3.275418         2.150795         0.715366
 H        -3.608904         1.152310         3.116888
 H        -2.084188         3.021755         2.620188
 H        -1.060301         1.922166         3.665259
 H        -0.660126         2.615329         0.771620
 H         0.061592        -0.201784         2.756416
 H        -0.646076        -1.500125         2.001947
