19
Iteration:  4924charge 0 multiplicity 1
 O         0.427187         0.021383         0.028128
 C        -0.745869         0.426316         0.809638
 C        -2.210386         0.148956         0.181558
 C        -2.690775         1.290017         0.933488
 C        -2.647315         0.953566         2.501385
 C        -1.567804         2.048121         2.648805
 C        -1.259160         1.883464         1.165862
 O        -2.090910        -0.341247         2.697427
 C        -0.744821        -0.296985         2.214861
 H         1.119171        -0.321357         0.641564
 H        -2.108548         0.439145        -0.832492
 H        -2.529489        -0.947403         0.215201
 H        -3.459512         2.019693         0.764143
 H        -3.554773         0.964114         2.993003
 H        -2.212994         2.923519         2.767481
 H        -0.806323         2.002612         3.450969
 H        -0.984062         2.746951         0.508889
 H         0.003641         0.033903         2.944589
 H        -0.353850        -1.301561         2.021088
