19
Iteration:  3032charge 0 multiplicity 1
 O         0.395545         0.241422         0.134809
 C        -0.752818         0.348972         0.896697
 C        -2.147855         0.176737         0.150640
 C        -2.599290         1.386175         0.903140
 C        -2.619331         1.043518         2.401219
 C        -1.652319         2.082339         2.665524
 C        -1.124302         1.890006         1.323036
 O        -2.092598        -0.365494         2.720381
 C        -0.868424        -0.652225         2.047563
 H         0.127994        -0.316102        -0.616635
 H        -1.951962         0.427558        -0.806397
 H        -2.489379        -0.774647         0.323248
 H        -3.305781         2.173348         0.689445
 H        -3.575762         1.040431         2.901877
 H        -2.131154         3.063210         2.837193
 H        -1.123050         1.723201         3.612501
 H        -0.355913         2.498996         0.844436
 H         0.042912        -0.522497         2.815687
 H        -0.808560        -1.741497         1.622974
