19
Iteration:  4683
 O         0.435384         0.316330         0.133957
 C        -0.800891         0.317060         0.846309
 C        -2.131698         0.058745         0.161612
 C        -2.659110         1.214922         0.993940
 C        -2.620608         0.980477         2.459967
 C        -1.563903         2.150970         2.595056
 C        -1.230565         1.807520         1.136059
 O        -2.071800        -0.303888         2.745497
 C        -0.826010        -0.457320         2.155309
 H         0.569490        -0.630574        -0.023543
 H        -2.321162         0.145553        -0.923092
 H        -2.765687        -0.853120         0.465506
 H        -3.362812         1.920967         0.666144
 H        -3.538532         1.015427         2.969417
 H        -2.015757         3.132164         2.638463
 H        -0.755595         2.109729         3.376374
 H        -0.871149         2.604897         0.442598
 H        -0.094083        -0.059930         2.827796
 H        -0.562281        -1.559320         1.871018
