19
Iteration:  2009
 O         0.415900         0.036250         0.234365
 C        -0.795124         0.364407         0.784070
 C        -2.116462         0.258876        -0.011914
 C        -2.632925         1.368530         0.971040
 C        -2.633441         0.993356         2.502572
 C        -1.549870         2.136474         2.769957
 C        -1.230789         1.863912         1.209884
 O        -2.121790        -0.387230         2.738610
 C        -0.791090        -0.555080         2.072591
 H         0.635167         0.566109        -0.548390
 H        -2.073097         0.637721        -1.037521
 H        -2.695853        -0.638305        -0.024647
 H        -3.406598         1.998004         0.668084
 H        -3.516304         1.065565         3.078104
 H        -2.245010         3.034561         3.009221
 H        -0.716408         1.901270         3.466446
 H        -0.840272         2.521677         0.462240
 H        -0.012816        -0.268224         2.714224
 H        -0.733593        -1.491005         1.634837
