19
Iteration:  1680charge 0 multiplicity 1
 O         0.513953         0.201174         0.319824
 C        -0.751136         0.387753         0.776703
 C        -2.098436         0.197575         0.080428
 C        -2.722018         1.301342         1.038675
 C        -2.619749         1.045368         2.540948
 C        -1.405537         2.078781         2.637541
 C        -1.240617         1.822879         1.154204
 O        -2.199177        -0.365730         2.739912
 C        -0.933275        -0.615617         1.974226
 H         0.559869         0.525191        -0.621419
 H        -2.169618         0.509739        -1.005987
 H        -2.560915        -0.854553        -0.009491
 H        -3.408139         1.937295         0.480774
 H        -3.553746         1.162281         3.209695
 H        -1.936168         3.024047         3.031023
 H        -0.532396         1.996284         3.289623
 H        -0.992494         2.745225         0.417033
 H         0.024717        -0.434859         2.712050
 H        -1.112889        -1.711560         1.679778
