19
Iteration:  2573charge 0 multiplicity 1
 O         0.416539         0.048992         0.120945
 C        -0.747755         0.338218         0.851582
 C        -2.131044         0.236757         0.102842
 C        -2.572212         1.325771         0.984832
 C        -2.669986         0.978366         2.496570
 C        -1.566946         2.010066         2.741269
 C        -1.173333         1.825906         1.216524
 O        -2.132601        -0.299959         2.687105
 C        -0.850621        -0.434578         2.104054
 H         0.465400         0.568923        -0.685526
 H        -2.148402         0.815454        -0.898381
 H        -2.739781        -0.716156        -0.129805
 H        -3.344889         1.928691         0.442094
 H        -3.767786         0.984099         2.843396
 H        -2.127778         2.956865         2.942372
 H        -0.891345         1.887170         3.693109
 H        -0.643347         2.621253         0.688341
 H        -0.054739        -0.043725         2.843104
 H        -0.641127        -1.475727         1.924897
