19
Iteration:  1743charge 0 multiplicity 1
 O         0.413767         0.045101         0.059950
 C        -0.739177         0.326825         0.806534
 C        -2.135021         0.171279         0.095572
 C        -2.621084         1.303458         0.931698
 C        -2.706807         1.006778         2.508160
 C        -1.593116         2.069850         2.730830
 C        -1.099839         1.920609         1.286217
 O        -2.144358        -0.327516         2.730009
 C        -0.853115        -0.486591         2.064167
 H         0.810121         0.879680        -0.288076
 H        -1.942391         0.605864        -0.853186
 H        -2.594021        -0.826610         0.130730
 H        -3.530096         1.877261         0.653103
 H        -3.655965         1.160328         3.081459
 H        -2.096843         3.023225         3.097182
 H        -0.864951         2.021034         3.603657
 H        -0.596609         2.693517         0.781954
 H        -0.108114        -0.293347         2.774892
 H        -0.652180        -1.492682         1.856733
