19
Iteration:   512charge 0 multiplicity 1
 O         0.441960         0.240381         0.015121
 C        -0.749160         0.288878         0.849465
 C        -2.088613         0.161995         0.103594
 C        -2.577340         1.422089         0.933787
 C        -2.704756         1.022019         2.472099
 C        -1.524135         1.945515         2.781614
 C        -1.092194         1.861929         1.320606
 O        -2.280617        -0.378197         2.652562
 C        -0.838366        -0.475376         2.170886
 H         0.227080        -0.277263        -0.768611
 H        -1.934284         0.670269        -0.952139
 H        -2.741429        -0.705561         0.036200
 H        -3.394373         2.092502         0.428768
 H        -3.622447         1.206985         3.032806
 H        -1.928771         2.936354         3.020913
 H        -0.933405         1.499580         3.499378
 H        -0.475825         2.666638         0.785434
 H        -0.139961        -0.154116         2.980889
 H        -0.640857        -1.567623         2.226790
