19
Iteration:  1611
 O         0.423922        -0.013946         0.088107
 C        -0.772973         0.310399         0.838389
 C        -2.128562         0.254651         0.071948
 C        -2.658621         1.337838         0.956484
 C        -2.637622         0.963838         2.467494
 C        -1.562329         2.016718         2.769148
 C        -1.194125         1.893078         1.268058
 O        -2.165826        -0.321955         2.576949
 C        -0.758971        -0.436517         2.248517
 H         0.461324         0.716378        -0.585078
 H        -2.181776         0.599325        -0.930167
 H        -2.582004        -0.724028         0.049644
 H        -3.390073         2.083470         0.594691
 H        -3.500903         1.054501         3.033270
 H        -2.058429         3.078289         2.841826
 H        -0.939410         2.090277         3.738496
 H        -0.750403         2.675558         0.652781
 H         0.040544         0.037286         2.997079
 H        -0.566892        -1.444992         2.082725
