19
Iteration:  2236
 O         0.539252         0.078029         0.319234
 C        -0.784925         0.400811         0.765908
 C        -2.199544         0.197586        -0.149027
 C        -2.776009         1.340504         0.954069
 C        -2.559448         0.993277         2.646590
 C        -1.466653         2.070437         2.718259
 C        -1.189622         1.851281         1.118213
 O        -2.104529        -0.337287         2.794327
 C        -0.945234        -0.520379         2.093182
 H         0.625942         0.369416        -0.635074
 H        -2.115903         0.910216        -0.958854
 H        -2.528156        -0.825181        -0.290266
 H        -3.674658         1.860905         0.687976
 H        -3.545836         1.039996         3.135941
 H        -2.003428         2.892343         2.729218
 H        -0.784055         1.954818         3.468527
 H        -0.747126         2.665881         0.532175
 H        -0.170175        -0.364474         2.716943
 H        -0.847020        -1.477129         1.603837
