19
Iteration:  2425charge 0 multiplicity 1
 O         0.491543         0.059237         0.166285
 C        -0.820010         0.406303         0.861498
 C        -2.152022         0.147263         0.092447
 C        -2.649404         1.364210         0.957635
 C        -2.659289         1.069553         2.518144
 C        -1.499477         2.009803         2.687752
 C        -1.177037         1.876950         1.221406
 O        -2.203243        -0.400432         2.685535
 C        -0.850592        -0.454214         2.071581
 H         0.630925         0.810244        -0.421653
 H        -2.015791         0.525818        -1.006453
 H        -2.819811        -0.743717         0.227236
 H        -3.438951         2.054631         0.630124
 H        -3.549352         0.993755         3.169170
 H        -1.799668         3.047618         2.835225
 H        -0.686954         1.754139         3.308974
 H        -0.535683         2.653917         0.760808
 H        -0.090971        -0.249923         2.848271
 H        -0.513622        -1.548045         1.656307
