19
Iteration:  1403charge 0 multiplicity 1
 O         0.486526         0.102377         0.375724
 C        -0.851417         0.447132         0.749153
 C        -2.192374         0.268154        -0.050284
 C        -2.695546         1.267329         0.937491
 C        -2.536492         0.974472         2.575112
 C        -1.505422         2.126744         2.615787
 C        -1.202018         1.837531         1.137706
 O        -2.097717        -0.382163         2.846929
 C        -0.901228        -0.562703         1.987621
 H         0.912212         0.688124        -0.239854
 H        -1.920144         0.631971        -1.118718
 H        -2.702172        -0.785034        -0.185645
 H        -3.612918         1.950161         0.639619
 H        -3.365353         1.002842         3.317379
 H        -2.065594         3.073925         2.834388
 H        -0.922129         1.926120         3.572675
 H        -0.749364         2.744322         0.487891
 H        -0.070627        -0.602121         2.621980
 H        -1.005631        -1.577281         1.648026
