19
Iteration:  3162charge 0 multiplicity 1
 O         0.360096         0.260593         0.126392
 C        -0.822744         0.326020         0.898977
 C        -2.081115         0.275801        -0.039479
 C        -2.558848         1.342000         0.851061
 C        -2.647116         0.955685         2.392814
 C        -1.603359         2.015971         2.763472
 C        -1.130724         1.767969         1.304801
 O        -2.085247        -0.320887         2.812107
 C        -0.877760        -0.513980         2.149859
 H         0.327226        -0.518692        -0.438452
 H        -1.862977         0.537331        -1.086149
 H        -2.797342        -0.612932        -0.035849
 H        -3.318836         1.985143         0.507003
 H        -3.584917         0.922051         2.923429
 H        -1.982340         3.026868         2.904581
 H        -0.886122         1.692246         3.492355
 H        -0.653394         2.549286         0.716791
 H        -0.082896        -0.235291         2.879574
 H        -0.791506        -1.522603         1.828879
