19
Iteration:  3354
 O         0.579778         0.300272         0.082360
 C        -0.819260         0.300328         0.846593
 C        -2.108001         0.203043        -0.041581
 C        -2.680185         1.288623         0.964855
 C        -2.674460         0.988294         2.528768
 C        -1.511838         2.043932         2.737733
 C        -1.215677         1.811681         1.233050
 O        -2.184026        -0.284996         2.839246
 C        -0.917027        -0.577360         2.093366
 H         0.823971        -0.583999        -0.285044
 H        -1.924998         0.522824        -1.084273
 H        -2.764274        -0.771337        -0.162706
 H        -3.449438         2.004027         0.628207
 H        -3.642082         1.032589         2.996036
 H        -1.876291         3.100317         2.676843
 H        -0.651678         2.051972         3.481353
 H        -0.648182         2.520158         0.612383
 H        -0.049467        -0.344003         2.826726
 H        -0.929604        -1.586918         1.778901
