19
Iteration:   566charge 0 multiplicity 1
 O         0.478992         0.013300         0.274353
 C        -0.739922         0.442109         0.798701
 C        -2.129929         0.291316        -0.020719
 C        -2.631220         1.436912         0.942419
 C        -2.653478         0.920155         2.478202
 C        -1.531238         2.039684         2.798133
 C        -1.227095         1.912695         1.205021
 O        -2.095160        -0.382024         2.763605
 C        -0.930290        -0.576189         1.995388
 H         0.747400         0.578351        -0.451395
 H        -2.200382         0.593233        -1.173370
 H        -2.628590        -0.624307         0.292921
 H        -3.406273         2.220437         0.659520
 H        -3.569116         0.998559         3.010497
 H        -1.897800         3.097139         3.097741
 H        -0.858568         1.589262         3.534949
 H        -0.908276         2.795240         0.511123
 H        -0.061360        -0.576500         2.661031
 H        -1.132217        -1.493857         1.452262
