19
Iteration:  1998charge 0 multiplicity 1
 O         0.475616         0.092083         0.258763
 C        -0.801007         0.393958         0.827361
 C        -2.145763         0.259832        -0.017341
 C        -2.653481         1.328105         0.932263
 C        -2.605328         0.904289         2.521309
 C        -1.487554         2.056552         2.674539
 C        -1.249578         1.941217         1.212363
 O        -2.123678        -0.355638         2.823243
 C        -0.905568        -0.598552         2.005699
 H         0.455959         0.669844        -0.547274
 H        -1.950416         0.618162        -1.025968
 H        -2.597165        -0.707090        -0.010706
 H        -3.373902         2.028504         0.673110
 H        -3.545220         1.057380         2.956991
 H        -1.805206         3.172893         2.733683
 H        -0.608261         2.115903         3.349306
 H        -0.921811         2.831312         0.715885
 H        -0.124181        -0.502225         2.705540
 H        -0.877832        -1.616322         1.833530
