19
Iteration:  1773
 O         0.389986         0.014197         0.034874
 C        -0.720355         0.307912         0.876890
 C        -2.123291         0.257759         0.086626
 C        -2.593333         1.369903         0.951045
 C        -2.699546         0.974317         2.511334
 C        -1.663056         2.081262         2.732221
 C        -1.116609         1.862661         1.288287
 O        -2.103784        -0.319569         2.667814
 C        -0.797765        -0.475965         2.138151
 H         0.455147         0.642444        -0.678082
 H        -1.911021         0.472115        -0.965153
 H        -2.664420        -0.705550         0.080978
 H        -3.412325         2.110947         0.835338
 H        -3.590707         0.877134         3.103987
 H        -2.284478         2.964244         2.779302
 H        -0.946632         2.093005         3.597409
 H        -0.642851         2.621142         0.690301
 H        -0.074949        -0.286621         3.044777
 H        -0.832977        -1.558351         1.811880
