19
Iteration:   441charge 0 multiplicity 1
 O         0.464128         0.212025         0.220909
 C        -0.814279         0.393394         0.783575
 C        -2.108100         0.354304        -0.100398
 C        -2.626675         1.326962         0.984308
 C        -2.628810         0.940556         2.584985
 C        -1.483295         1.999850         2.660959
 C        -1.173274         1.843045         1.181895
 O        -2.182666        -0.412761         2.872700
 C        -1.000361        -0.573501         1.987381
 H         1.125893        -0.268552         0.725016
 H        -1.874374         0.969291        -0.962451
 H        -2.530989        -0.651787        -0.477964
 H        -3.213138         2.124649         0.736490
 H        -3.549323         1.231163         3.163044
 H        -1.936859         3.003632         2.789024
 H        -0.547090         1.707363         3.308441
 H        -0.846135         2.669362         0.614962
 H        -0.097654        -0.538024         2.607028
 H        -0.920358        -1.566464         1.572007
