19
Iteration:   668charge 0 multiplicity 1
 O         0.516289        -0.047114         0.073208
 C        -0.777682         0.369995         0.801055
 C        -2.122347         0.372592         0.009189
 C        -2.611798         1.418592         0.965920
 C        -2.657606         0.967345         2.480437
 C        -1.648921         2.011855         2.848814
 C        -1.123743         1.947609         1.316739
 O        -2.154394        -0.372051         2.681499
 C        -0.877977        -0.533877         2.116365
 H         0.416880         0.074834        -0.907421
 H        -1.968666         0.771904        -1.042353
 H        -2.627418        -0.644454        -0.149413
 H        -3.555405         2.002409         0.622428
 H        -3.691075         1.084062         3.029367
 H        -2.093759         2.912720         3.152477
 H        -1.062839         1.753274         3.694727
 H        -0.555099         2.762567         0.894141
 H        -0.080892        -0.146759         2.761964
 H        -0.623934        -1.634140         1.967685
