19
Iteration:  3640charge 0 multiplicity 1
 O         0.506877         0.143816         0.122879
 C        -0.768928         0.371191         0.726892
 C        -2.158896         0.074807         0.144809
 C        -2.696242         1.246145         0.961760
 C        -2.667022         1.001862         2.539660
 C        -1.516789         2.092676         2.682149
 C        -1.230297         1.866004         1.106516
 O        -2.127628        -0.306678         2.733855
 C        -0.864185        -0.431594         2.112954
 H         1.084775         0.246593         0.893685
 H        -2.290383         0.373232        -0.964885
 H        -2.648948        -0.904284         0.382999
 H        -3.352956         1.942564         0.442112
 H        -3.561314         0.965860         3.244058
 H        -2.044575         2.951946         3.045093
 H        -0.694851         1.994768         3.364003
 H        -0.907455         2.762620         0.524992
 H         0.003809        -0.039644         2.883100
 H        -0.725246        -1.457310         1.732137
