19
Iteration:   266charge 0 multiplicity 1
 O         0.444997         0.148351         0.139352
 C        -0.744264         0.370353         0.795502
 C        -2.106508         0.251666         0.041707
 C        -2.595631         1.396303         0.930202
 C        -2.700045         1.006809         2.406119
 C        -1.493007         1.932228         2.822577
 C        -1.127750         1.885624         1.380740
 O        -2.216458        -0.373586         2.677870
 C        -0.912735        -0.514811         2.063501
 H         0.426475         0.404384        -0.772425
 H        -2.210397         0.457094        -0.998838
 H        -2.637196        -0.833299         0.157227
 H        -3.436401         1.989612         0.705369
 H        -3.782167         0.985420         2.761252
 H        -1.595496         2.879127         3.284121
 H        -0.712565         1.516680         3.483912
 H        -0.474167         2.682383         0.991520
 H        -0.149979         0.007622         2.710840
 H        -0.823340        -1.538613         1.878131
