19
Iteration:  3422charge 0 multiplicity 1
 O         0.481797         0.049694         0.127777
 C        -0.766787         0.333207         0.793702
 C        -2.162690         0.157686         0.086226
 C        -2.662775         1.355896         0.997098
 C        -2.741974         0.973082         2.474770
 C        -1.482479         2.001153         2.684859
 C        -1.184086         1.783899         1.215003
 O        -2.145592        -0.326355         2.704229
 C        -0.832830        -0.338679         2.103597
 H         0.890339         0.953806         0.097731
 H        -2.073766         0.633316        -0.927153
 H        -2.721010        -0.761420        -0.147421
 H        -3.545971         1.881192         0.711782
 H        -3.615611         1.142328         3.139097
 H        -1.927149         3.022096         2.894468
 H        -0.864276         1.787872         3.619733
 H        -0.764878         2.715345         0.721179
 H        -0.101073         0.185838         2.828394
 H        -0.549592        -1.455696         2.042587
