19
Iteration:  4475
 O         0.508943         0.204629         0.126465
 C        -0.801159         0.343131         0.824022
 C        -2.215477         0.057981         0.063450
 C        -2.675592         1.195529         0.928684
 C        -2.653039         1.067549         2.551329
 C        -1.537394         2.119264         2.648441
 C        -1.324511         1.809811         1.092262
 O        -2.070524        -0.312352         2.836651
 C        -0.753204        -0.348107         2.099080
 H         0.589178        -0.724857        -0.210861
 H        -1.968675         0.330673        -0.926998
 H        -2.660060        -0.931794         0.301821
 H        -3.603669         1.710496         0.632026
 H        -3.482672         1.089616         3.255351
 H        -1.954532         3.079843         2.826358
 H        -0.893412         1.762004         3.480694
 H        -0.846128         2.636485         0.469509
 H         0.002808         0.179896         2.873074
 H        -0.567872        -1.458054         1.961678
