19
Iteration:  3324
 O         0.404561         0.188728         0.162005
 C        -0.835819         0.377302         0.890202
 C        -2.117221         0.206897         0.030345
 C        -2.676914         1.345939         0.945220
 C        -2.659686         0.987560         2.479694
 C        -1.466888         1.966725         2.746173
 C        -1.206012         1.860148         1.172575
 O        -2.110300        -0.346832         2.673919
 C        -0.878601        -0.484967         2.112602
 H         1.087613        -0.248995         0.721759
 H        -2.055026         0.339976        -1.039584
 H        -2.619413        -0.667912         0.134355
 H        -3.385981         2.055417         0.577961
 H        -3.592709         1.072649         3.010329
 H        -1.841428         2.964993         2.720457
 H        -0.700142         1.727663         3.419992
 H        -0.728373         2.694541         0.637235
 H        -0.015028        -0.077479         2.713650
 H        -0.667098        -1.558959         1.765200
