19
Iteration:   697charge 0 multiplicity 1
 O         0.417356         0.115222         0.204908
 C        -0.879269         0.394726         0.872631
 C        -2.044077         0.415705        -0.012078
 C        -2.643996         1.377458         0.971494
 C        -2.703784         0.876480         2.533035
 C        -1.473371         2.042407         2.708097
 C        -1.113216         1.826875         1.296511
 O        -2.131354        -0.399647         2.691019
 C        -0.940002        -0.554639         2.064173
 H         0.333773        -0.291825        -0.649977
 H        -1.711635         0.905618        -0.941556
 H        -2.429093        -0.474433        -0.384294
 H        -3.482202         1.943016         0.610499
 H        -3.574715         1.041926         2.993069
 H        -2.064443         3.027812         2.697999
 H        -0.648450         1.979749         3.489935
 H        -0.525214         2.628763         0.770124
 H        -0.048626        -0.307606         2.660402
 H        -0.753341        -1.568862         1.782855
