19
Iteration:  2808charge 0 multiplicity 1
 O         0.475116         0.270022         0.256100
 C        -0.771999         0.342135         0.800790
 C        -2.180736         0.226540        -0.011148
 C        -2.657074         1.327936         0.942663
 C        -2.601098         0.987580         2.518247
 C        -1.447939         2.060052         2.723207
 C        -1.229208         1.826913         1.116930
 O        -2.125128        -0.315520         2.783542
 C        -0.953928        -0.716596         2.070444
 H         0.722429         1.042718        -0.283265
 H        -2.229421         0.517259        -1.023125
 H        -2.688650        -0.706393        -0.142060
 H        -3.316592         2.129527         0.609881
 H        -3.425931         1.074823         3.218518
 H        -1.822212         3.050101         3.110570
 H        -0.721843         1.783855         3.505965
 H        -0.612053         2.471288         0.435967
 H        -0.146710        -0.700830         2.787689
 H        -1.151141        -1.704592         1.777536
