19
Iteration:  1756
 O         0.427242        -0.003338        -0.029487
 C        -0.754201         0.392472         0.796809
 C        -2.043021         0.207773         0.098178
 C        -2.577391         1.383625         0.992013
 C        -2.649002         0.991915         2.485141
 C        -1.650597         2.164474         2.824395
 C        -1.183151         1.861250         1.303454
 O        -2.197189        -0.378233         2.759808
 C        -0.816914        -0.548252         2.101693
 H         0.743521         0.771259        -0.500353
 H        -2.186005         0.409269        -0.973679
 H        -2.492506        -0.831592         0.167364
 H        -3.229063         2.067270         0.443321
 H        -3.691607         0.891928         2.981577
 H        -2.114169         3.139186         2.473644
 H        -1.011155         2.023203         3.696338
 H        -0.702349         2.715286         0.689900
 H        -0.084399        -0.026454         2.721928
 H        -0.719015        -1.617894         1.957969
