19
Iteration:  2857charge 0 multiplicity 1
 O         0.516462        -0.065365         0.124940
 C        -0.767525         0.313973         0.785693
 C        -2.206492         0.294294         0.059810
 C        -2.635237         1.392138         1.000664
 C        -2.658148         0.970154         2.521969
 C        -1.603784         2.056479         2.786634
 C        -1.194221         1.881102         1.324646
 O        -2.117119        -0.358212         2.585056
 C        -0.767822        -0.410803         2.102225
 H         0.496647         0.476267        -0.693006
 H        -2.067296         0.541785        -1.044173
 H        -2.845485        -0.637006        -0.024790
 H        -3.519838         2.039680         0.754717
 H        -3.644442         0.940162         3.035157
 H        -2.085610         3.055297         2.945804
 H        -0.950896         1.958744         3.709394
 H        -0.858300         2.859782         0.869601
 H        -0.093681         0.006011         2.878197
 H        -0.710978        -1.557732         1.788568
