19
Iteration:  3254charge 0 multiplicity 1
 O         0.389789         0.179268         0.163426
 C        -0.822638         0.272788         0.756859
 C        -2.133224         0.221034        -0.024967
 C        -2.594489         1.397202         0.873654
 C        -2.718125         1.035740         2.420084
 C        -1.510999         2.027257         2.758690
 C        -1.166440         1.801679         1.270901
 O        -2.071726        -0.321926         2.814788
 C        -0.847027        -0.585903         2.159148
 H         0.697003         1.109569         0.074297
 H        -1.840848         0.402289        -1.041574
 H        -2.739262        -0.673966        -0.214834
 H        -3.541680         2.038972         0.751643
 H        -3.774878         1.045047         2.807332
 H        -1.871241         3.059723         2.893489
 H        -0.954143         1.460786         3.568877
 H        -0.668804         2.589469         0.668957
 H         0.096803        -0.274652         2.806757
 H        -0.872707        -1.630390         2.023451
