19
Iteration:   144charge 0 multiplicity 1
 O         0.416154         0.300605         0.171349
 C        -0.782264         0.435803         0.853095
 C        -2.142737         0.358788         0.078827
 C        -2.624921         1.434740         1.009050
 C        -2.629267         0.939292         2.552399
 C        -1.379160         2.017208         2.684133
 C        -1.076646         1.796289         1.234088
 O        -2.296316        -0.538487         2.592844
 C        -0.970346        -0.588265         2.040158
 H         0.853290        -0.512465         0.431498
 H        -1.974303         0.674056        -0.942263
 H        -2.664687        -0.681759         0.204920
 H        -3.395662         2.086592         0.678780
 H        -3.611159         1.052523         3.101781
 H        -1.865261         2.961191         2.762333
 H        -0.634890         2.020510         3.488637
 H        -0.393423         2.433845         0.734762
 H        -0.163177        -0.557960         2.908307
 H        -0.709414        -1.508061         1.538220
