19
Iteration:  3114
 O         0.434889         0.242910         0.196764
 C        -0.785187         0.414121         0.822018
 C        -2.157306         0.143755         0.109731
 C        -2.630405         1.380961         0.946218
 C        -2.629410         1.002528         2.542539
 C        -1.486322         2.047313         2.736545
 C        -1.173240         1.919109         1.160762
 O        -2.189707        -0.420728         2.644887
 C        -0.837283        -0.550449         2.033260
 H         0.877182        -0.568109         0.539871
 H        -2.012345         0.442955        -1.006086
 H        -2.623729        -0.900416         0.126568
 H        -3.577789         1.928024         0.645927
 H        -3.584986         1.091686         3.105333
 H        -2.052751         2.999439         2.860364
 H        -0.757297         1.912670         3.549600
 H        -0.634132         2.678851         0.555743
 H        -0.180649        -0.465877         2.871123
 H        -0.883971        -1.669027         1.628693
