19
Iteration:  1135
 O         0.485459         0.251219         0.270673
 C        -0.831356         0.394329         0.856522
 C        -2.068249         0.169064        -0.022896
 C        -2.665137         1.316067         1.008491
 C        -2.617604         1.031350         2.520089
 C        -1.407266         2.020759         2.685690
 C        -1.270555         1.783886         1.205855
 O        -2.155295        -0.299882         2.730313
 C        -0.967915        -0.639289         2.011295
 H         0.507605         0.735946        -0.598441
 H        -1.957299         0.824825        -1.013042
 H        -2.581433        -0.808766        -0.085196
 H        -3.415909         1.882971         0.532670
 H        -3.465541         1.223254         3.229431
 H        -1.648730         3.020756         3.136847
 H        -0.553388         1.769327         3.361496
 H        -0.792504         2.550548         0.369322
 H        -0.075307        -0.738413         2.771159
 H        -1.260597        -1.709893         1.668802
