19
Iteration:  4271
 O         0.539775         0.075637         0.208821
 C        -0.769802         0.349848         0.802139
 C        -2.217353         0.091789         0.092062
 C        -2.776337         1.195020         1.004218
 C        -2.583736         1.016079         2.543631
 C        -1.551901         2.135688         2.621738
 C        -1.302977         1.861798         1.137452
 O        -2.039471        -0.310567         2.748630
 C        -0.816540        -0.365049         2.071238
 H         0.629087         0.422040        -0.716700
 H        -2.341880         0.423616        -0.918284
 H        -2.462746        -1.008916         0.177906
 H        -3.557819         1.915178         0.784995
 H        -3.404861         1.034220         3.293940
 H        -1.919467         3.155633         2.661969
 H        -0.812540         1.918740         3.371188
 H        -0.976303         2.589221         0.424688
 H        -0.197816         0.242264         2.772577
 H        -0.628680        -1.475317         2.123262
