19
Iteration:  2643charge 0 multiplicity 1
 O         0.516230         0.172686         0.248119
 C        -0.867964         0.291033         0.762397
 C        -2.190878         0.233488         0.031538
 C        -2.659724         1.323484         0.893590
 C        -2.596626         0.949973         2.587178
 C        -1.409962         1.988050         2.715659
 C        -1.264662         1.817605         1.157575
 O        -2.174957        -0.353877         2.718149
 C        -0.898278        -0.456321         2.093751
 H         0.828957         1.069431         0.111362
 H        -2.043909         0.541528        -0.970743
 H        -2.656235        -0.711245        -0.053298
 H        -3.478518         1.911753         0.532082
 H        -3.405213         1.221951         3.266232
 H        -1.803628         3.033142         2.939302
 H        -0.434251         2.010528         3.237825
 H        -0.777483         2.597977         0.501068
 H        -0.041344        -0.094595         2.712114
 H        -0.892687        -1.574012         1.926538
