19
Iteration:  3200charge 0 multiplicity 1
 O         0.589738         0.089458         0.276621
 C        -0.720245         0.433603         0.797673
 C        -2.173708         0.222293         0.059120
 C        -2.676969         1.272666         0.963625
 C        -2.627534         0.979298         2.591362
 C        -1.449055         2.101607         2.694670
 C        -1.273595         1.859369         1.262165
 O        -2.189974        -0.387192         2.572310
 C        -0.962196        -0.462052         2.047822
 H         0.361867        -0.035427        -0.664830
 H        -2.160047         0.584390        -0.955089
 H        -2.511929        -0.745636         0.104322
 H        -3.525928         1.999842         0.643146
 H        -3.543802         1.282816         3.156616
 H        -1.990961         2.990982         3.108550
 H        -0.618826         2.023623         3.454692
 H        -0.930644         2.555515         0.468930
 H        -0.116373        -0.364454         2.801395
 H        -0.653225        -1.527175         1.864960
