19
Iteration:   112
 O         0.402849         0.117526         0.054927
 C        -0.769678         0.320232         0.800038
 C        -2.048121         0.385799        -0.007114
 C        -2.607540         1.443083         0.940980
 C        -2.729963         0.994913         2.496625
 C        -1.565883         1.937675         2.925620
 C        -1.190969         1.825333         1.391390
 O        -2.136503        -0.318963         2.597163
 C        -0.831911        -0.509609         2.063955
 H         0.453728        -0.825888        -0.287310
 H        -1.885889         0.656088        -1.004369
 H        -2.613707        -0.628765         0.093974
 H        -3.386869         2.142803         0.532640
 H        -3.794176         0.925803         2.919459
 H        -1.847663         2.891620         3.213868
 H        -0.857523         1.425795         3.554519
 H        -0.513161         2.516986         0.953078
 H        -0.054977        -0.135057         2.832747
 H        -0.730994        -1.621951         1.974293
