19
Iteration:  1863charge 0 multiplicity 1
 O         0.424803         0.173701         0.232837
 C        -0.834284         0.325859         0.814093
 C        -2.136506         0.240374         0.032619
 C        -2.633136         1.391143         0.921469
 C        -2.576772         1.012154         2.457128
 C        -1.531903         2.029986         2.709633
 C        -1.181378         1.909288         1.231503
 O        -2.124032        -0.379747         2.801967
 C        -0.879886        -0.622242         2.064327
 H         0.475062         0.184628        -0.746331
 H        -1.951841         0.551696        -1.004024
 H        -2.707650        -0.729669         0.094289
 H        -3.547392         1.992651         0.546420
 H        -3.498267         1.221857         3.111015
 H        -2.056179         3.051527         2.763068
 H        -0.747349         1.948231         3.523402
 H        -0.620317         2.554850         0.604639
 H         0.096928        -0.366777         2.756591
 H        -0.865592        -1.667328         1.595600
