19
Iteration:  3891
 O         0.428600         0.382559         0.199760
 C        -0.837337         0.348422         0.911952
 C        -2.141671         0.081505         0.103443
 C        -2.657606         1.236415         0.900635
 C        -2.599376         0.955897         2.434398
 C        -1.493302         2.172988         2.568776
 C        -1.281870         1.803109         1.123137
 O        -2.057713        -0.259367         2.865706
 C        -0.846435        -0.627134         2.119772
 H         0.597571        -0.290868        -0.501269
 H        -2.017076         0.203656        -0.989664
 H        -2.804879        -0.745301         0.290281
 H        -3.516410         1.726839         0.467525
 H        -3.407283         1.193658         3.161707
 H        -2.111535         3.059938         2.772162
 H        -0.633396         1.839075         3.144242
 H        -0.818266         2.459857         0.400410
 H        -0.025165        -0.515169         2.922288
 H        -0.801356        -1.658313         1.908410
