19
Iteration:   758
 O         0.419025         0.335442         0.172174
 C        -0.802283         0.294969         0.861172
 C        -2.155389         0.270220         0.041616
 C        -2.609337         1.403802         0.983865
 C        -2.587025         1.034724         2.460974
 C        -1.412989         1.916189         2.764318
 C        -1.157242         1.831031         1.212281
 O        -2.274504        -0.387219         2.581636
 C        -0.880085        -0.588701         2.097267
 H         0.715304        -0.554429         0.414140
 H        -1.855011         0.713583        -0.917384
 H        -2.787441        -0.723482         0.151844
 H        -3.327738         2.175449         0.618421
 H        -3.533483         1.075000         3.172514
 H        -1.766662         2.887370         3.047629
 H        -0.709486         1.740548         3.577305
 H        -0.656906         2.610020         0.639428
 H        -0.197133        -0.484564         2.962261
 H        -0.843764        -1.665106         1.766154
