19
Iteration:   645
 O         0.381098         0.046628         0.154175
 C        -0.732792         0.420149         0.871121
 C        -2.092184         0.226266         0.126226
 C        -2.587699         1.418207         0.984399
 C        -2.698745         1.009241         2.458307
 C        -1.557263         1.982870         2.816835
 C        -1.165525         1.789600         1.285482
 O        -2.178187        -0.321748         2.567943
 C        -0.838112        -0.510501         2.019034
 H         0.580558         0.732636        -0.477213
 H        -2.042755         0.340971        -1.024641
 H        -2.601096        -0.762322         0.270321
 H        -3.166190         2.340141         0.589840
 H        -3.675548         1.170617         2.991262
 H        -1.765676         2.990846         3.117405
 H        -0.950643         1.641373         3.589903
 H        -0.702221         2.675564         0.861775
 H        -0.064929        -0.342292         2.762137
 H        -0.690721        -1.536566         1.587409
