19
Iteration:  1056charge 0 multiplicity 1
 O         0.384716        -0.009389         0.078827
 C        -0.734328         0.367518         0.896474
 C        -2.028055         0.315025         0.004030
 C        -2.602005         1.361171         0.942255
 C        -2.708968         0.940950         2.479430
 C        -1.625961         2.078936         2.773974
 C        -1.226331         1.895507         1.271190
 O        -2.078116        -0.357976         2.778222
 C        -0.844104        -0.515063         2.054068
 H         0.368182         0.636019        -0.675845
 H        -1.754509         0.716025        -0.989988
 H        -2.576647        -0.675907         0.009459
 H        -3.299430         2.148226         0.704698
 H        -3.673527         0.978808         2.941561
 H        -2.006396         3.048630         2.939687
 H        -0.901313         1.815844         3.507777
 H        -0.788991         2.830550         0.723847
 H         0.027454        -0.475952         2.765487
 H        -0.958943        -1.596471         1.867769
