19
Iteration:  4041charge 0 multiplicity 1
 O         0.429731         0.241213         0.233261
 C        -0.823967         0.323869         0.788277
 C        -2.102063         0.080374        -0.019629
 C        -2.740928         1.230311         0.969802
 C        -2.598324         0.993441         2.490586
 C        -1.430785         2.083645         2.602823
 C        -1.339248         1.849907         1.071362
 O        -2.055682        -0.302280         2.914221
 C        -0.805393        -0.419164         2.130069
 H         0.519553        -0.536589        -0.362434
 H        -1.976751         0.538342        -0.992655
 H        -2.594641        -0.942579        -0.113681
 H        -3.615192         1.891592         0.783803
 H        -3.534402         1.083159         3.047337
 H        -1.962700         3.001398         2.856588
 H        -0.637448         2.088499         3.335275
 H        -1.033332         2.659153         0.451262
 H        -0.042618        -0.051768         2.721507
 H        -0.911719        -1.572801         2.082261
