19
Iteration:  1749charge 0 multiplicity 1
 O         0.424243         0.025955         0.010012
 C        -0.761020         0.352566         0.798705
 C        -2.102906         0.174839         0.121932
 C        -2.588188         1.325662         0.938428
 C        -2.699181         1.015564         2.489463
 C        -1.619324         2.111186         2.783180
 C        -1.124980         1.917118         1.311280
 O        -2.177130        -0.358412         2.762497
 C        -0.835703        -0.524271         2.043525
 H         0.864606         0.790851        -0.428087
 H        -2.078231         0.627568        -0.935179
 H        -2.469087        -0.852256         0.115746
 H        -3.393664         1.935532         0.519060
 H        -3.598219         0.976064         3.082493
 H        -2.066076         3.102036         2.851708
 H        -0.961735         2.116067         3.644987
 H        -0.591204         2.752672         0.693027
 H        -0.136465        -0.053161         2.881263
 H        -0.647947        -1.673166         1.935707
