19
Iteration:  2237charge 0 multiplicity 1
 O         0.530360         0.083385         0.325640
 C        -0.766410         0.397582         0.766606
 C        -2.213464         0.191715        -0.155813
 C        -2.765816         1.345604         0.957548
 C        -2.566601         0.984109         2.651881
 C        -1.463503         2.074191         2.712854
 C        -1.194020         1.856699         1.117000
 O        -2.107379        -0.331880         2.797112
 C        -0.947266        -0.527302         2.087618
 H         0.663830         0.354167        -0.617813
 H        -2.108080         0.931163        -0.981798
 H        -2.532539        -0.844742        -0.309031
 H        -3.651190         1.863831         0.691309
 H        -3.539777         1.009252         3.157316
 H        -2.032760         2.906334         2.731155
 H        -0.761239         1.942661         3.453036
 H        -0.731286         2.654006         0.528131
 H        -0.113354        -0.334381         2.707954
 H        -0.849525        -1.496241         1.597476
