19
Iteration:  1015
 O         0.504183         0.291449         0.252647
 C        -0.823695         0.326442         0.813249
 C        -2.173085         0.214873        -0.042911
 C        -2.638765         1.368750         0.995331
 C        -2.636269         0.988565         2.573172
 C        -1.421187         2.071777         2.727049
 C        -1.247941         1.775624         1.241053
 O        -2.179397        -0.327031         2.669199
 C        -0.901717        -0.616532         2.017143
 H         0.674730        -0.587165        -0.127120
 H        -1.925190         0.778285        -1.053836
 H        -2.699696        -0.732696         0.104317
 H        -3.403780         2.055980         0.711238
 H        -3.587981         1.000269         3.141337
 H        -1.770655         3.182623         2.950879
 H        -0.572383         1.874686         3.476068
 H        -0.893110         2.464599         0.328336
 H        -0.073339        -0.488338         2.735404
 H        -0.732601        -1.640842         1.659123
