19
Iteration:  4820charge 0 multiplicity 1
 O         0.392632         0.120573         0.107099
 C        -0.813184         0.312826         0.845512
 C        -2.161938         0.141636         0.114565
 C        -2.674147         1.280142         0.975086
 C        -2.586136         1.009315         2.465617
 C        -1.524620         2.091909         2.545064
 C        -1.254401         1.901161         1.100061
 O        -2.126059        -0.442227         2.789953
 C        -0.754279        -0.409923         2.266600
 H         1.165500         0.716626         0.234395
 H        -2.124478         0.684049        -0.921218
 H        -2.648469        -0.828725        -0.009063
 H        -3.594607         1.921682         0.514706
 H        -3.603239         1.074903         3.112079
 H        -1.980198         3.113455         2.800555
 H        -0.750687         1.956303         3.344396
 H        -0.965286         2.650536         0.361004
 H        -0.188804         0.155291         3.002483
 H        -0.250979        -1.350047         2.017968
