19
Iteration:  1155
 O         0.572205         0.160897         0.243863
 C        -0.806916         0.370709         0.787279
 C        -2.139971         0.303437        -0.002165
 C        -2.666019         1.320287         0.992247
 C        -2.576412         0.967003         2.563858
 C        -1.545435         2.115798         2.657671
 C        -1.159168         1.814596         1.212422
 O        -2.165596        -0.378573         2.853341
 C        -0.986068        -0.593361         1.920958
 H         0.656206         0.258457        -0.719444
 H        -2.035409         0.840791        -0.966899
 H        -2.615900        -0.703389         0.039272
 H        -3.586471         1.884418         0.771787
 H        -3.545534         1.045685         3.088331
 H        -2.020324         3.105934         2.677282
 H        -0.777561         2.045864         3.436132
 H        -0.703119         2.673382         0.772037
 H        -0.194394        -0.658082         2.734150
 H        -1.015491        -1.708686         1.595270
