19
Iteration:  1071charge 0 multiplicity 1
 O         0.412595        -0.013742         0.074595
 C        -0.775763         0.313280         0.767193
 C        -2.086512         0.221728         0.082546
 C        -2.642934         1.381782         0.970558
 C        -2.631188         1.028743         2.507450
 C        -1.647616         2.145152         2.811733
 C        -1.191147         1.912257         1.349157
 O        -2.142485        -0.353480         2.634894
 C        -0.788147        -0.576373         2.121859
 H         0.775777         0.751766        -0.397068
 H        -2.011935         0.738725        -0.985657
 H        -2.507370        -0.713589        -0.248438
 H        -3.503615         1.843968         0.502301
 H        -3.593149         0.916311         3.090665
 H        -2.159953         3.184834         3.056610
 H        -0.913631         1.918197         3.666034
 H        -0.548537         2.636229         0.708426
 H        -0.079191        -0.101392         2.736368
 H        -0.520110        -1.543324         1.754437
