19
Iteration:   451
 O         0.498477         0.236071         0.242511
 C        -0.800763         0.385470         0.792332
 C        -2.095112         0.380108        -0.126346
 C        -2.676972         1.350632         1.080387
 C        -2.641690         0.905552         2.559688
 C        -1.415350         2.036206         2.615529
 C        -1.195703         1.764145         1.159295
 O        -2.168276        -0.366637         2.764911
 C        -0.987695        -0.614212         2.061606
 H         0.880759        -0.434851         0.805885
 H        -1.997434         1.028881        -0.937792
 H        -2.622071        -0.591657        -0.366054
 H        -3.477223         2.018128         0.887387
 H        -3.484828         0.945367         3.349797
 H        -1.906511         3.016213         2.719376
 H        -0.705039         2.094841         3.587156
 H        -0.814496         2.473491         0.498492
 H        -0.088941        -0.546551         2.659186
 H        -1.204234        -1.523016         1.527857
