19
Iteration:    31
 O         0.563968         0.203710         0.258355
 C        -0.809614         0.399570         0.766092
 C        -2.175740         0.267881         0.043154
 C        -2.685897         1.421863         0.966025
 C        -2.636510         0.946777         2.490152
 C        -1.346652         1.869358         2.742626
 C        -1.210233         1.838966         1.236677
 O        -2.214603        -0.370752         2.702010
 C        -1.024725        -0.539736         1.931850
 H         0.995670         1.088308         0.307069
 H        -2.222285         0.469122        -1.135543
 H        -2.619443        -0.707714         0.242330
 H        -3.465614         2.070894         0.711494
 H        -3.537696         1.075193         3.044857
 H        -1.529030         2.881542         3.223910
 H        -0.557137         1.443999         3.389366
 H        -0.748970         2.721659         0.720446
 H        -0.187075        -0.305006         2.783261
 H        -0.945961        -1.639736         1.784870
