19
Iteration:  4419
 O         0.475458         0.290761         0.140929
 C        -0.784254         0.341182         0.775537
 C        -2.148081         0.022281         0.118641
 C        -2.687007         1.205759         1.010529
 C        -2.689820         1.036905         2.523415
 C        -1.529671         2.188024         2.587490
 C        -1.263965         1.773930         1.116105
 O        -2.065021        -0.235410         2.869296
 C        -0.830543        -0.547005         2.080468
 H         0.641359        -0.541654        -0.336265
 H        -2.207704         0.306299        -0.926097
 H        -2.382489        -1.031519         0.163888
 H        -3.561633         1.794344         0.619479
 H        -3.604632         1.050204         3.152688
 H        -1.980425         3.163108         2.495931
 H        -0.917704         2.278484         3.495243
 H        -0.731838         2.613637         0.618274
 H         0.100905        -0.248061         2.711144
 H        -0.618869        -1.628896         1.861982
