19
Iteration:  3000charge 0 multiplicity 1
 O         0.462775         0.109453         0.080765
 C        -0.741068         0.359038         0.826544
 C        -2.167233         0.176567        -0.001366
 C        -2.583456         1.337529         0.970139
 C        -2.659904         1.030252         2.521800
 C        -1.542119         1.994542         2.772199
 C        -1.180340         1.821323         1.276219
 O        -2.222988        -0.374436         2.642204
 C        -0.826182        -0.399166         2.204779
 H         0.242440         0.413917        -0.837228
 H        -1.991183         0.515863        -0.980082
 H        -2.506570        -0.823302        -0.071328
 H        -3.295749         2.107469         0.633512
 H        -3.601736         1.098036         3.058505
 H        -1.936889         2.974744         3.069115
 H        -0.844933         1.623463         3.595397
 H        -0.676602         2.676579         0.799449
 H        -0.256326         0.162753         2.869767
 H        -0.463589        -1.471812         2.011408
