19
Iteration:  4293
 O         0.444018         0.149288         0.179877
 C        -0.862407         0.386584         0.808030
 C        -2.118635         0.105654         0.045140
 C        -2.704247         1.210797         0.950568
 C        -2.570844         0.991696         2.566503
 C        -1.488441         2.135361         2.576285
 C        -1.304164         1.819270         1.059015
 O        -2.114080        -0.309783         2.900458
 C        -0.777676        -0.445993         2.145200
 H         0.868653         0.915356        -0.200882
 H        -2.073227         0.582015        -0.922146
 H        -2.603274        -0.916308         0.037633
 H        -3.633754         1.632243         0.597144
 H        -3.476594         0.916895         3.178446
 H        -2.077626         3.036542         2.771629
 H        -0.582668         2.006001         3.146970
 H        -0.929770         2.455931         0.270194
 H         0.122639        -0.070144         2.679841
 H        -0.873765        -1.548586         1.916766
