19
Iteration:  4066
 O         0.524305         0.144240         0.088170
 C        -0.782128         0.346210         0.786243
 C        -2.145878         0.097546         0.133152
 C        -2.708816         1.254762         1.015965
 C        -2.641915         1.014475         2.540184
 C        -1.569516         2.114837         2.570231
 C        -1.292265         1.816967         1.180979
 O        -2.087166        -0.349638         2.756586
 C        -0.766131        -0.333743         2.136728
 H         0.424538        -0.798737        -0.161431
 H        -2.275032         0.578528        -0.917191
 H        -2.603855        -0.880583         0.225400
 H        -3.516393         1.825698         0.589855
 H        -3.528955         1.048326         3.194683
 H        -2.121586         3.096768         2.786554
 H        -0.768123         2.172509         3.380798
 H        -0.829575         2.628202         0.628398
 H        -0.055913         0.156098         2.791896
 H        -0.730064        -1.387297         2.161006
