19
Iteration:   478charge 0 multiplicity 1
 O         0.467001         0.242232         0.259470
 C        -0.811707         0.332018         0.831241
 C        -2.173970         0.178705         0.052869
 C        -2.588476         1.409487         0.957679
 C        -2.625328         1.011529         2.508097
 C        -1.491065         2.069836         2.720700
 C        -1.185738         1.895423         1.243084
 O        -2.187726        -0.390650         2.666238
 C        -0.896503        -0.608574         1.971902
 H         0.686202        -0.689666         0.158577
 H        -2.017779         0.615752        -1.052551
 H        -2.754839        -0.767587         0.018007
 H        -3.336703         2.162862         0.552052
 H        -3.380930         1.018132         3.230849
 H        -1.814216         3.020262         3.205370
 H        -0.782488         1.768929         3.452753
 H        -0.690644         2.753156         0.640309
 H         0.011824        -0.487360         2.649507
 H        -1.014647        -1.589777         1.468494
