19
Iteration:  3284
 O         0.438252         0.047332         0.062853
 C        -0.709893         0.393137         0.800145
 C        -2.082624         0.243925         0.083616
 C        -2.630838         1.357440         0.995388
 C        -2.681029         0.962437         2.538319
 C        -1.522275         2.070466         2.699550
 C        -1.202448         1.853161         1.261555
 O        -2.201071        -0.365508         2.674131
 C        -0.866412        -0.489450         2.107857
 H         1.116523         0.724150         0.188555
 H        -1.783976         0.533342        -0.973746
 H        -2.512346        -0.922940         0.042253
 H        -3.523438         1.979374         0.862794
 H        -3.718662         0.934988         3.000803
 H        -2.126024         3.011228         2.746279
 H        -0.886671         2.178513         3.640438
 H        -0.860640         2.727755         0.686490
 H        -0.046491        -0.337465         2.858481
 H        -1.005044        -1.553284         1.873266
