19
Iteration:   905
 O         0.434118         0.092187         0.217645
 C        -0.855572         0.400386         0.822218
 C        -2.075575         0.297010         0.053129
 C        -2.642036         1.413510         0.926451
 C        -2.651439         0.981103         2.483568
 C        -1.553155         2.045964         2.818265
 C        -1.137744         1.897358         1.287314
 O        -2.128530        -0.417308         2.686677
 C        -0.852860        -0.578443         1.983232
 H         0.465751        -0.008857        -0.771692
 H        -2.001187         0.724080        -1.009686
 H        -2.687544        -0.616935        -0.044638
 H        -3.375491         2.050994         0.534098
 H        -3.578015         1.006038         2.991180
 H        -2.058933         3.060695         3.171515
 H        -0.810408         1.834546         3.675191
 H        -0.515356         2.699502         0.730302
 H        -0.019148        -0.564736         2.759168
 H        -0.984053        -1.583154         1.571552
