19
Iteration:  3505charge 0 multiplicity 1
 O         0.537728         0.192248         0.255396
 C        -0.833634         0.359252         0.789309
 C        -2.199434         0.200294        -0.025543
 C        -2.667298         1.287801         0.909391
 C        -2.639277         0.980167         2.500229
 C        -1.501318         2.111721         2.697448
 C        -1.250922         1.766250         1.147556
 O        -2.104817        -0.323223         2.812715
 C        -0.830298        -0.480793         2.124052
 H         0.354983        -0.382740        -0.516522
 H        -2.148800         0.717368        -0.945014
 H        -2.724900        -0.776116         0.058814
 H        -3.549361         1.830712         0.514181
 H        -3.510334         1.046773         3.075238
 H        -2.035827         3.024013         2.813524
 H        -0.813438         1.873873         3.477604
 H        -0.787599         2.464398         0.519349
 H        -0.010172         0.091986         2.702393
 H        -0.527289        -1.602995         2.068943
