19
Iteration:  4244
 O         0.350240         0.143626         0.134070
 C        -0.741725         0.378735         0.918700
 C        -2.172317         0.025526         0.163727
 C        -2.664149         1.306075         0.880322
 C        -2.639452         0.985486         2.453795
 C        -1.591539         2.084140         2.604859
 C        -1.273179         1.958446         1.153975
 O        -2.019176        -0.334685         2.777152
 C        -0.709793        -0.438738         2.168846
 H         0.127165        -0.048043        -0.809723
 H        -2.072627         0.156502        -0.967975
 H        -2.559261        -0.969348         0.444650
 H        -3.417415         2.096479         0.634852
 H        -3.529080         0.859202         3.108258
 H        -2.015321         3.135427         2.584359
 H        -0.801159         1.939063         3.459217
 H        -0.894503         2.845094         0.507501
 H         0.068788        -0.169111         2.899232
 H        -0.592093        -1.497701         1.994048
