19
Iteration:  1187charge 0 multiplicity 1
 O         0.383864        -0.005616         0.197167
 C        -0.809359         0.377053         0.821094
 C        -2.067102         0.298191         0.066308
 C        -2.643124         1.416914         0.949778
 C        -2.646261         0.969176         2.456113
 C        -1.649130         2.080205         2.761947
 C        -1.200314         1.865983         1.292156
 O        -2.066424        -0.351229         2.690631
 C        -0.780482        -0.532428         2.061524
 H         0.339653         0.146434        -0.783626
 H        -1.753933         0.579250        -0.918181
 H        -2.685165        -0.618151        -0.110304
 H        -3.552044         1.958178         0.550228
 H        -3.623410         0.997100         2.964768
 H        -1.793587         3.112148         3.064011
 H        -0.932961         1.717625         3.498374
 H        -0.688249         2.653488         0.852542
 H         0.008273        -0.070284         2.726650
 H        -0.744675        -1.586999         1.610844
