19
Iteration:  4899charge 0 multiplicity 1
 O         0.356435         0.166629         0.062852
 C        -0.814522         0.275221         0.773153
 C        -2.094864         0.152398         0.010723
 C        -2.679687         1.210652         0.916483
 C        -2.642774         1.043434         2.600832
 C        -1.595831         2.185968         2.665981
 C        -1.211015         1.826796         1.196773
 O        -2.063333        -0.295095         2.816265
 C        -0.768283        -0.484084         2.161515
 H         1.081938        -0.261042         0.572081
 H        -1.995149         0.544949        -1.046860
 H        -2.337679        -0.901536        -0.120494
 H        -3.624072         1.853687         0.559014
 H        -3.628572         1.014536         3.174984
 H        -2.179101         3.107505         2.718029
 H        -0.872549         2.084135         3.542076
 H        -0.858161         2.535554         0.407270
 H         0.069659        -0.025178         2.738258
 H        -0.562590        -1.534697         2.043261
