19
Iteration:  1261
 O         0.491243         0.158735         0.328471
 C        -0.818392         0.355639         0.869859
 C        -2.151439         0.238687         0.035327
 C        -2.653879         1.335447         0.939067
 C        -2.620204         1.015509         2.504837
 C        -1.467622         2.083304         2.669246
 C        -1.268332         1.862574         1.155617
 O        -2.063013        -0.340994         2.766233
 C        -0.971993        -0.631860         1.952897
 H         0.637848         0.898877        -0.281550
 H        -2.231669         0.467610        -1.046258
 H        -2.639420        -0.794217         0.043804
 H        -3.482637         2.088145         0.588584
 H        -3.532524         1.178215         3.087384
 H        -1.796375         3.006608         3.156721
 H        -0.689603         1.681987         3.358452
 H        -0.665006         2.516074         0.409336
 H        -0.033917        -0.587955         2.512726
 H        -0.891471        -1.766405         1.702968
