19
Iteration:  2151charge 0 multiplicity 1
 O         0.444263         0.077276         0.140293
 C        -0.722896         0.352735         0.863799
 C        -2.167722         0.208524         0.057172
 C        -2.691240         1.326441         0.919604
 C        -2.598344         1.036948         2.477007
 C        -1.523605         2.056526         2.713394
 C        -1.199835         1.814544         1.237029
 O        -2.163700        -0.322784         2.716309
 C        -0.807814        -0.520061         2.112640
 H         0.542067         0.745402        -0.543000
 H        -2.063377         0.565417        -1.015858
 H        -2.790507        -0.703635        -0.003374
 H        -3.529556         1.923345         0.686356
 H        -3.517768         1.202721         3.000610
 H        -2.075716         3.065227         2.979913
 H        -0.821661         1.839873         3.590256
 H        -0.748314         2.577859         0.615817
 H        -0.209397        -0.104371         3.003071
 H        -0.631253        -1.613859         1.973628
