19
Iteration:    44
 O         0.456491         0.233385         0.303641
 C        -0.805355         0.373758         0.831053
 C        -2.124706         0.315062         0.072312
 C        -2.641503         1.351195         1.049065
 C        -2.594520         0.989000         2.509591
 C        -1.407137         1.921249         2.690881
 C        -1.162425         1.804491         1.207067
 O        -2.232194        -0.366539         2.591351
 C        -0.971549        -0.609168         2.023445
 H         0.653407         1.077994        -0.124157
 H        -2.091773         0.888673        -0.915688
 H        -2.628267        -0.667351        -0.086548
 H        -3.445201         1.953917         0.772791
 H        -3.466228         1.125220         3.129307
 H        -1.805994         2.918979         2.879401
 H        -0.598507         1.575851         3.344949
 H        -0.637626         2.505009         0.541988
 H         0.051852        -0.564528         2.647314
 H        -1.034783        -1.549289         1.455705
