19
Iteration:  4248
 O         0.358795         0.131789         0.177688
 C        -0.757341         0.350292         0.885750
 C        -2.171771         0.041944         0.165951
 C        -2.677328         1.314253         0.911272
 C        -2.672714         0.965752         2.475059
 C        -1.568511         2.079017         2.631927
 C        -1.271980         1.950451         1.114415
 O        -2.008085        -0.326647         2.753728
 C        -0.662879        -0.406606         2.136377
 H         0.205926        -0.032388        -0.748292
 H        -2.123939         0.150585        -0.899121
 H        -2.645240        -0.987679         0.431645
 H        -3.511183         1.968564         0.587114
 H        -3.637501         1.061883         3.036045
 H        -2.044374         3.076085         2.619126
 H        -0.789637         2.040924         3.420124
 H        -0.854915         2.809279         0.552061
 H        -0.011357        -0.155354         2.957006
 H        -0.699879        -1.469593         1.857874
