19
Iteration:  3010charge 0 multiplicity 1
 O         0.422874         0.171303         0.078629
 C        -0.747959         0.335371         0.830422
 C        -2.145644         0.159944         0.052922
 C        -2.600560         1.394116         0.889591
 C        -2.719257         0.926970         2.476342
 C        -1.537328         2.003134         2.809121
 C        -1.124271         1.832522         1.298722
 O        -2.209927        -0.339085         2.667526
 C        -0.772343        -0.423463         2.182136
 H         0.161542         0.186212        -0.865523
 H        -2.005892         0.473027        -0.928353
 H        -2.706601        -0.724150         0.164138
 H        -3.112534         2.276566         0.510032
 H        -3.678663         0.988892         2.982644
 H        -1.991142         3.008776         2.931749
 H        -0.825851         1.821572         3.690674
 H        -0.621556         2.536490         0.605808
 H        -0.009750        -0.176275         2.959230
 H        -0.745474        -1.566099         2.100162
