19
Iteration:   282
 O         0.464766         0.149207         0.223104
 C        -0.821449         0.313478         0.877512
 C        -2.117565         0.304907         0.015342
 C        -2.640227         1.427828         0.953428
 C        -2.644879         0.986075         2.513520
 C        -1.486428         1.951743         2.781962
 C        -1.197771         1.825738         1.206433
 O        -2.176199        -0.340168         2.636231
 C        -0.867390        -0.594862         2.063517
 H         0.511707         0.836596        -0.461963
 H        -1.805838         0.872415        -0.910591
 H        -2.634335        -0.555796        -0.149478
 H        -3.421485         2.240035         0.546079
 H        -3.501198         1.062821         3.135166
 H        -1.886336         2.965931         3.099797
 H        -0.788468         1.569809         3.551091
 H        -0.736448         2.641109         0.554223
 H        -0.071602        -0.558775         2.772969
 H        -0.872884        -1.718093         1.736532
