19
Iteration:  1220
 O         0.432064         0.123266         0.039266
 C        -0.758351         0.370020         0.746010
 C        -2.106431         0.168555         0.088788
 C        -2.521738         1.385295         0.984654
 C        -2.627013         0.986874         2.507126
 C        -1.545397         2.035983         2.781408
 C        -1.158049         1.854898         1.246132
 O        -2.272981        -0.409982         2.632888
 C        -0.902462        -0.463268         2.237301
 H         0.626123         0.795866        -0.621815
 H        -1.956650         0.372992        -0.934314
 H        -2.722008        -0.748392         0.248039
 H        -3.362631         2.099133         0.706999
 H        -3.563842         1.151297         3.083964
 H        -1.923830         3.066788         2.847869
 H        -0.859345         1.673763         3.533400
 H        -0.818618         2.638362         0.631817
 H        -0.035913        -0.122761         2.896269
 H        -0.396927        -1.522077         2.311401
