19
Iteration:  4980charge 0 multiplicity 1
 O         0.471577         0.252079         0.019956
 C        -0.755575         0.263563         0.753093
 C        -2.100725         0.130383         0.052677
 C        -2.688265         1.238647         0.931992
 C        -2.662955         1.080408         2.617432
 C        -1.588893         2.116091         2.557355
 C        -1.230641         1.757376         1.155507
 O        -2.076626        -0.291405         2.925672
 C        -0.914221        -0.580963         2.153017
 H         1.006028         0.987825         0.378592
 H        -1.969532         0.644068        -0.897843
 H        -2.426863        -0.966616         0.102629
 H        -3.534036         1.875651         0.745667
 H        -3.568351         1.016963         3.179285
 H        -1.967910         3.176326         2.573975
 H        -0.888981         2.068148         3.404170
 H        -0.565143         2.453426         0.593856
 H        -0.057543        -0.060355         2.662076
 H        -0.950327        -1.751100         2.033347
