19
Iteration:  3750charge 0 multiplicity 1
 O         0.435741         0.189628         0.311454
 C        -0.776010         0.382431         0.865804
 C        -2.214116         0.112600         0.110751
 C        -2.661167         1.257999         0.901238
 C        -2.550040         0.983457         2.516458
 C        -1.480780         2.142641         2.612355
 C        -1.317241         1.857356         1.036353
 O        -2.113726        -0.386063         2.764021
 C        -0.797703        -0.503071         2.102556
 H         0.552144         0.940882        -0.319435
 H        -2.203769         0.255990        -1.046192
 H        -2.877381        -0.732961         0.269973
 H        -3.582365         1.763530         0.599526
 H        -3.501677         1.079313         3.168191
 H        -1.963361         3.108501         2.734553
 H        -0.616051         1.919349         3.209239
 H        -0.787432         2.680221         0.451204
 H        -0.087871        -0.250463         2.807037
 H        -0.415670        -1.541950         1.740919
