19
Iteration:  4999
 O         0.459903         0.200386         0.119714
 C        -0.826008         0.341539         0.843230
 C        -2.139003         0.113170        -0.034907
 C        -2.680248         1.191401         0.930028
 C        -2.643190         0.945893         2.519437
 C        -1.499008         2.169369         2.643376
 C        -1.281152         1.781695         1.120985
 O        -2.066679        -0.236997         2.934714
 C        -0.837627        -0.552908         2.120312
 H         0.950426         1.018821         0.266454
 H        -1.971926         0.593834        -0.969479
 H        -2.733605        -0.836825        -0.041753
 H        -3.518250         1.958590         0.659733
 H        -3.439769         1.184427         3.149754
 H        -2.094219         3.078287         2.646875
 H        -0.768221         2.167963         3.509019
 H        -0.884226         2.482717         0.324941
 H         0.131783        -0.529008         2.645676
 H        -0.984762        -1.534675         1.794281
