19
Iteration:  2818charge 0 multiplicity 1
 O         0.451024         0.219925         0.170514
 C        -0.811831         0.361061         0.893783
 C        -2.133921         0.239755        -0.036325
 C        -2.665608         1.351159         0.868445
 C        -2.616602         0.968193         2.539969
 C        -1.477432         2.007995         2.720904
 C        -1.155533         1.847285         1.198674
 O        -2.125598        -0.316618         2.833954
 C        -0.947736        -0.667482         2.073647
 H         0.520698         1.077188        -0.271396
 H        -1.803787         0.706039        -0.921416
 H        -2.680008        -0.687508         0.047147
 H        -3.587309         1.830757         0.572692
 H        -3.567697         1.080584         3.073001
 H        -1.848185         3.016024         2.745220
 H        -0.607915         1.785379         3.304622
 H        -0.710135         2.591257         0.520040
 H         0.001502        -0.680959         2.663705
 H        -1.116449        -1.584760         1.655061
