19
Iteration:  2189
 O         0.394738         0.112822         0.087629
 C        -0.739735         0.353394         0.901360
 C        -2.159581         0.167526         0.145970
 C        -2.643293         1.366896         0.872761
 C        -2.618709         1.033602         2.406437
 C        -1.537096         2.034624         2.736566
 C        -1.143870         1.855063         1.299363
 O        -2.189047        -0.342109         2.675395
 C        -0.814859        -0.512260         2.130922
 H         0.426466         0.693953        -0.691536
 H        -1.914773         0.191668        -0.881584
 H        -2.628469        -0.732132         0.527725
 H        -3.520069         1.998184         0.477359
 H        -3.461234         1.213907         3.132328
 H        -2.148319         2.989947         2.797399
 H        -0.944184         1.790209         3.658935
 H        -0.453382         2.544237         0.735021
 H        -0.009075        -0.151371         2.730951
 H        -0.651183        -1.574412         1.942868
