19
Iteration:  1263charge 0 multiplicity 1
 O         0.503215         0.149854         0.333772
 C        -0.814425         0.354903         0.853664
 C        -2.151722         0.243861         0.011306
 C        -2.667061         1.333297         0.942900
 C        -2.621889         1.000674         2.503623
 C        -1.461444         2.099199         2.685475
 C        -1.265060         1.870967         1.150318
 O        -2.062652        -0.338134         2.787451
 C        -0.987855        -0.632214         1.947258
 H         0.585792         0.882724        -0.276168
 H        -2.247183         0.461625        -1.010894
 H        -2.623539        -0.774289         0.036124
 H        -3.482199         2.048388         0.550387
 H        -3.559815         1.186023         3.062224
 H        -1.790460         3.018624         3.184256
 H        -0.657831         1.672597         3.299331
 H        -0.706693         2.505254         0.469789
 H        -0.006493        -0.593132         2.499431
 H        -0.822463        -1.758995         1.681728
