19
Iteration:  2628
 O         0.396879         0.144817         0.212394
 C        -0.792560         0.376990         0.878646
 C        -2.142249         0.181427         0.017358
 C        -2.703394         1.381265         1.007001
 C        -2.626095         1.006509         2.462995
 C        -1.497782         2.082719         2.637221
 C        -1.154063         1.800471         1.199485
 O        -2.117286        -0.364322         2.750949
 C        -0.842336        -0.581824         2.052109
 H         0.884187         0.967138         0.041981
 H        -2.098926         0.570113        -1.086651
 H        -2.728580        -0.835471         0.064255
 H        -3.483361         2.133746         0.707082
 H        -3.634967         0.986227         3.001485
 H        -1.882504         3.103345         2.797180
 H        -0.875482         1.681640         3.518439
 H        -0.677800         2.592437         0.611095
 H        -0.046392        -0.204154         2.767822
 H        -0.725923        -1.574951         1.669787
