19
Iteration:  3635
 O         0.515459         0.130971         0.116339
 C        -0.759141         0.387663         0.733148
 C        -2.117730         0.075085         0.133823
 C        -2.712235         1.243738         0.980149
 C        -2.694524         0.996601         2.559714
 C        -1.502795         2.070209         2.660990
 C        -1.252223         1.899290         1.100592
 O        -2.122338        -0.316128         2.754844
 C        -0.890983        -0.418080         2.113221
 H         1.167089         0.368453         0.824395
 H        -2.347216         0.297568        -0.856791
 H        -2.561549        -0.936473         0.111183
 H        -3.416692         1.993675         0.568577
 H        -3.550068         1.025057         3.181597
 H        -1.946176         3.084124         2.950005
 H        -0.547096         1.936549         3.271772
 H        -0.870826         2.724429         0.518317
 H        -0.275961        -0.187814         2.868374
 H        -0.683845        -1.513508         1.798325
