19
Iteration:     5
 O         0.398340         0.166707         0.100407
 C        -0.784775         0.382089         0.834495
 C        -2.135731         0.282588         0.001648
 C        -2.584572         1.398680         0.953673
 C        -2.629759         0.974082         2.530198
 C        -1.504542         1.969981         2.788290
 C        -1.169690         1.863070         1.277012
 O        -2.211870        -0.396539         2.664284
 C        -0.847894        -0.544884         2.021047
 H         1.128345         0.352297         0.743472
 H        -2.125095         0.698358        -0.980707
 H        -2.616891        -0.720342        -0.012366
 H        -3.455408         2.080873         0.622951
 H        -3.583926         1.090255         3.119435
 H        -1.882914         2.929427         3.141162
 H        -0.806803         1.659557         3.583975
 H        -0.656278         2.673887         0.760145
 H        -0.104911        -0.531413         2.786308
 H        -0.897397        -1.578956         1.675536
