19
Iteration:  3235charge 0 multiplicity 1
 O         0.450073         0.173093         0.225984
 C        -0.781178         0.391292         0.943480
 C        -2.185048         0.244726         0.059947
 C        -2.636819         1.352145         0.859906
 C        -2.621628         0.994686         2.472174
 C        -1.483317         2.007688         2.659697
 C        -1.191424         1.832695         1.194715
 O        -2.140657        -0.370792         2.746537
 C        -0.892964        -0.579979         2.070097
 H         0.614779         1.019475        -0.226703
 H        -2.070840         0.464170        -1.019329
 H        -2.654122        -0.713974         0.150789
 H        -3.338078         2.140852         0.527333
 H        -3.527042         1.042498         3.046125
 H        -2.031269         2.926753         2.935414
 H        -0.715089         1.734973         3.369729
 H        -0.542377         2.526072         0.636442
 H        -0.050572        -0.343838         2.684650
 H        -1.024612        -1.671744         1.780386
