19
Iteration:  1035charge 0 multiplicity 1
 O         0.443857         0.163270         0.212631
 C        -0.803051         0.384374         0.781758
 C        -2.131057         0.293994        -0.009125
 C        -2.663657         1.360787         0.901142
 C        -2.608782         0.953930         2.472200
 C        -1.567390         1.974232         2.719529
 C        -1.132261         1.867937         1.239228
 O        -2.091545        -0.354418         2.865864
 C        -0.929327        -0.543606         2.032210
 H         0.366511        -0.133149        -0.695938
 H        -2.049119         0.929102        -0.942700
 H        -2.456271        -0.774244        -0.031589
 H        -3.500860         1.952098         0.661993
 H        -3.546641         1.109478         2.971479
 H        -2.003741         2.965839         2.879020
 H        -0.884213         1.753806         3.543736
 H        -0.435212         2.732461         0.811613
 H        -0.094870        -0.488275         2.727678
 H        -0.901551        -1.602532         1.743927
