19
Iteration:  4200
 O         0.492105         0.220583         0.060932
 C        -0.810219         0.360245         0.814035
 C        -2.117988         0.041666         0.095959
 C        -2.692877         1.211771         1.007904
 C        -2.663939         1.047007         2.563741
 C        -1.617412         2.141838         2.627091
 C        -1.236659         1.698843         1.176133
 O        -2.032356        -0.249266         2.793786
 C        -0.803509        -0.431102         2.156050
 H         0.256228        -0.180513        -0.818718
 H        -2.213839         0.392531        -0.995447
 H        -2.523757        -0.992185         0.173035
 H        -3.411822         1.901794         0.506636
 H        -3.585680         1.279383         3.118710
 H        -2.073550         3.179606         2.748781
 H        -0.784841         1.900211         3.434571
 H        -0.908339         2.545467         0.457740
 H        -0.077029        -0.035999         2.865420
 H        -0.612766        -1.486615         2.108434
