19
Iteration:  3624charge 0 multiplicity 1
 O         0.486478         0.114199         0.120578
 C        -0.749977         0.436735         0.838994
 C        -2.080918         0.099201         0.040035
 C        -2.721931         1.263472         1.016061
 C        -2.634417         0.993205         2.549337
 C        -1.469987         2.061675         2.587950
 C        -1.326784         1.883546         1.130059
 O        -2.183222        -0.332862         2.800737
 C        -0.881874        -0.437900         2.106271
 H         1.253919         0.590625         0.490890
 H        -2.003488         0.534186        -0.909395
 H        -2.276470        -0.979920         0.113550
 H        -3.716336         1.668745         0.773065
 H        -3.532245         1.208446         3.055837
 H        -1.668153         3.157662         2.722640
 H        -0.637617         1.716891         3.267217
 H        -0.933201         2.617447         0.449652
 H        -0.088255        -0.168909         2.681279
 H        -0.763633        -1.562593         1.949324
