19
Iteration:  4015
 O         0.425131         0.344991         0.235297
 C        -0.761595         0.352460         0.891218
 C        -2.151955         0.042348         0.104091
 C        -2.769634         1.248653         0.873231
 C        -2.635292         1.051247         2.528592
 C        -1.512603         2.140127         2.577924
 C        -1.235324         1.821805         1.029126
 O        -1.995386        -0.291950         2.878404
 C        -0.836171        -0.599943         2.053395
 H         0.538820        -0.461153        -0.321200
 H        -2.009666         0.221530        -0.968689
 H        -2.712507        -0.870692         0.201987
 H        -3.668254         1.892240         0.719429
 H        -3.515657         0.980643         3.181463
 H        -1.944211         3.125058         2.797727
 H        -0.833140         2.028856         3.418575
 H        -0.724384         2.615297         0.370954
 H         0.076154        -0.548730         2.832404
 H        -1.143301        -1.614886         1.823437
