19
Iteration:  1994charge 0 multiplicity 1
 O         0.494342         0.128526         0.249651
 C        -0.809565         0.386734         0.864128
 C        -2.139668         0.262571        -0.001375
 C        -2.652766         1.320811         0.926221
 C        -2.585408         0.901810         2.523776
 C        -1.462605         2.046093         2.626675
 C        -1.245759         1.934619         1.201003
 O        -2.123047        -0.345307         2.833408
 C        -0.973163        -0.587602         2.021082
 H         0.593851         0.620014        -0.578057
 H        -1.993622         0.638456        -1.038997
 H        -2.542070        -0.808875        -0.063475
 H        -3.574171         2.001983         0.696406
 H        -3.621679         0.981931         3.058670
 H        -1.802423         3.100468         2.773045
 H        -0.675811         1.998579         3.391918
 H        -0.811940         2.849173         0.752328
 H         0.006221        -0.493445         2.570905
 H        -0.987554        -1.719726         1.741269
