19
Iteration:  1178charge 0 multiplicity 1
 O         0.412309         0.031361         0.253229
 C        -0.787902         0.321342         0.849742
 C        -2.138955         0.294119        -0.034889
 C        -2.616319         1.399079         0.946736
 C        -2.636380         0.970771         2.497438
 C        -1.611853         2.089310         2.790961
 C        -1.204145         1.922084         1.220636
 O        -2.051974        -0.340705         2.713680
 C        -0.820832        -0.569434         2.006265
 H         0.337616         0.033548        -0.728368
 H        -2.019683         0.828475        -1.043902
 H        -2.571089        -0.715005         0.006848
 H        -3.338481         2.172368         0.727212
 H        -3.631102         0.823386         2.987853
 H        -2.168555         3.057363         2.951045
 H        -0.925827         1.901777         3.632021
 H        -0.854267         2.823549         0.647769
 H         0.047247        -0.507672         2.798204
 H        -0.737224        -1.713143         1.794166
