19
Iteration:  3388charge 0 multiplicity 1
 O         0.430453         0.104119         0.245688
 C        -0.806682         0.411910         0.879908
 C        -2.095961         0.142693         0.106484
 C        -2.651200         1.348414         0.932409
 C        -2.641530         0.947479         2.441476
 C        -1.515525         2.126023         2.682074
 C        -1.207287         1.938911         1.244180
 O        -2.113068        -0.352994         2.709034
 C        -0.847218        -0.560894         2.028539
 H         0.221709         0.313468        -0.710113
 H        -1.902118         0.510860        -0.921851
 H        -2.732750        -0.774259         0.258857
 H        -3.558822         1.866672         0.663853
 H        -3.579461         1.014611         2.966763
 H        -2.116711         3.083815         2.765943
 H        -0.729638         2.013114         3.492434
 H        -0.622162         2.593665         0.572842
 H        -0.054928        -0.474083         2.864103
 H        -0.712259        -1.536352         1.558494
