19
Iteration:  4061charge 0 multiplicity 1
 O         0.553036         0.159117         0.104697
 C        -0.815741         0.362052         0.763753
 C        -2.165028         0.152025         0.076558
 C        -2.702804         1.202398         1.015777
 C        -2.617343         1.018173         2.602368
 C        -1.585880         2.112112         2.585273
 C        -1.261411         1.808208         1.141283
 O        -2.101329        -0.340874         2.793636
 C        -0.788305        -0.318616         2.139307
 H         0.314534        -0.757137        -0.166111
 H        -2.295928         0.503554        -0.899479
 H        -2.555785        -0.910918         0.074836
 H        -3.533941         1.671093         0.432854
 H        -3.454962         1.015355         3.295427
 H        -1.963338         3.095689         2.733003
 H        -0.792537         1.961891         3.291719
 H        -0.794131         2.522050         0.435580
 H        -0.168861         0.133605         2.979268
 H        -0.635368        -1.472399         2.119106
