19
Iteration:  3665
 O         0.330104         0.223775         0.115808
 C        -0.803341         0.315856         0.879460
 C        -2.141330         0.092499         0.132382
 C        -2.700460         1.340687         0.905827
 C        -2.677733         0.978099         2.414004
 C        -1.594548         2.130120         2.629159
 C        -1.174455         1.833251         1.196516
 O        -2.006431        -0.311503         2.725707
 C        -0.767151        -0.531019         2.155978
 H         0.941980        -0.338977         0.606342
 H        -2.048269         0.339521        -0.977009
 H        -2.723197        -0.817624         0.307784
 H        -3.415441         2.132235         0.669027
 H        -3.626257         0.800338         2.997291
 H        -2.088597         3.113545         2.745151
 H        -0.796567         2.160054         3.395956
 H        -0.430601         2.548038         0.725175
 H        -0.019895        -0.061835         3.007402
 H        -0.564563        -1.497564         1.851984
