19
Iteration:  1308charge 0 multiplicity 1
 O         0.440742         0.089190         0.223379
 C        -0.823653         0.329196         0.830178
 C        -2.047043         0.293464         0.015029
 C        -2.694990         1.339183         0.947670
 C        -2.660978         0.926476         2.511879
 C        -1.510330         2.146808         2.698210
 C        -1.226317         1.860038         1.241178
 O        -2.126290        -0.349028         2.763384
 C        -0.851736        -0.530617         2.047095
 H         0.412807         0.054929        -0.737410
 H        -1.803352         0.756616        -0.910468
 H        -2.525124        -0.635259        -0.302741
 H        -3.593504         1.932850         0.732895
 H        -3.617999         0.904160         3.082938
 H        -1.728054         3.213334         2.854527
 H        -0.680611         1.942969         3.373550
 H        -0.868691         2.587067         0.565799
 H         0.030696        -0.406359         2.726627
 H        -0.775181        -1.684082         1.900972
