19
Iteration:  2023
 O         0.438094        -0.024935         0.147777
 C        -0.802889         0.353479         0.851075
 C        -2.163007         0.250375         0.095497
 C        -2.687810         1.349281         0.984588
 C        -2.624811         0.973632         2.518211
 C        -1.614326         2.051975         2.738932
 C        -1.146379         1.862147         1.242970
 O        -2.080273        -0.334111         2.602232
 C        -0.841767        -0.435130         2.072124
 H         0.559163         0.671564        -0.560374
 H        -1.938298         0.742748        -0.861222
 H        -2.509881        -0.772615        -0.014287
 H        -3.514814         2.036060         0.696496
 H        -3.575021         0.942121         3.041414
 H        -1.902878         3.109013         2.789881
 H        -1.035285         1.885230         3.688405
 H        -0.498922         2.694663         0.802232
 H         0.011073        -0.047902         2.799389
 H        -0.646786        -1.510955         2.134751
