19
Iteration:  1722charge 0 multiplicity 1
 O         0.423132         0.146250         0.262018
 C        -0.845971         0.380033         0.853970
 C        -2.161489         0.218983         0.058466
 C        -2.683231         1.387006         0.902643
 C        -2.624955         0.997491         2.457929
 C        -1.422741         1.968389         2.678892
 C        -1.282959         1.800069         1.164967
 O        -2.118251        -0.327019         2.714499
 C        -0.834244        -0.548056         2.088509
 H         0.854568         0.907076        -0.154759
 H        -2.056806         0.600816        -0.943396
 H        -2.528565        -0.823938         0.189014
 H        -3.431861         2.150898         0.634582
 H        -3.516071         0.981126         3.152184
 H        -1.584869         3.066164         2.960880
 H        -0.664879         1.806719         3.462305
 H        -0.844941         2.512314         0.428908
 H        -0.081399        -0.277042         2.829018
 H        -0.659171        -1.598877         1.913758
