19
Iteration:  3378charge 0 multiplicity 1
 O         0.404617         0.192594         0.225927
 C        -0.820330         0.373724         0.929150
 C        -2.069808         0.196407         0.117355
 C        -2.625351         1.297121         0.968329
 C        -2.606523         0.978900         2.494150
 C        -1.591188         2.096741         2.649705
 C        -1.172269         1.911561         1.173377
 O        -2.153496        -0.336046         2.733431
 C        -0.847241        -0.597591         2.024027
 H         0.332801        -0.067369        -0.724392
 H        -1.896446         0.492908        -0.920780
 H        -2.445929        -0.816582         0.051035
 H        -3.400505         1.933439         0.614479
 H        -3.600060         0.971579         2.924157
 H        -2.000106         3.107419         2.843567
 H        -0.729859         2.061681         3.358457
 H        -0.520182         2.599633         0.582415
 H         0.129571        -0.563792         2.671007
 H        -0.994144        -1.616932         1.548955
