19
Iteration:  1834
 O         0.542640         0.266325         0.312505
 C        -0.784517         0.365172         0.773420
 C        -2.121611         0.229954         0.071573
 C        -2.734944         1.284083         1.061582
 C        -2.601492         1.046844         2.505877
 C        -1.374918         2.066084         2.661786
 C        -1.245173         1.843337         1.167201
 O        -2.236179        -0.365909         2.730466
 C        -0.967700        -0.620682         1.988274
 H         0.626055         0.076958        -0.612126
 H        -2.039970         0.526873        -0.971968
 H        -2.539907        -0.774954         0.192703
 H        -3.619262         1.772886         0.756681
 H        -3.393536         1.204342         3.234650
 H        -1.575222         3.173852         2.791147
 H        -0.562085         1.848437         3.340101
 H        -0.827355         2.305681         0.224891
 H        -0.107162        -0.642390         2.596191
 H        -0.801310        -1.584714         1.575365
