19
Iteration:    89charge 0 multiplicity 1
 O         0.433863         0.084580         0.109408
 C        -0.718129         0.440080         0.815145
 C        -2.122502         0.347050         0.044716
 C        -2.570738         1.409612         1.014316
 C        -2.694276         0.946622         2.455676
 C        -1.636172         1.926290         2.824417
 C        -1.055024         1.893986         1.335397
 O        -2.167116        -0.342329         2.718173
 C        -0.865727        -0.566509         1.968637
 H         0.141320        -0.413547        -0.649716
 H        -1.901530         0.810492        -0.921807
 H        -2.674358        -0.638904        -0.121358
 H        -3.286314         2.164430         0.723213
 H        -3.711185         1.011458         2.919992
 H        -2.117620         2.866856         2.880228
 H        -1.148906         1.612231         3.747034
 H        -0.655000         2.789059         0.911063
 H        -0.067249        -0.370577         2.780604
 H        -0.787894        -1.586703         1.553460
