19
Iteration:   936charge 0 multiplicity 1
 O         0.433433         0.006449         0.040758
 C        -0.799582         0.346868         0.803621
 C        -2.052166         0.408569        -0.002360
 C        -2.618287         1.382182         1.018423
 C        -2.713107         0.944185         2.472064
 C        -1.646361         2.116410         2.796561
 C        -1.115218         1.785111         1.323593
 O        -2.134452        -0.392444         2.773718
 C        -0.836017        -0.571402         2.078213
 H         0.837344         0.757162        -0.397451
 H        -1.932178         1.015499        -0.937510
 H        -2.704424        -0.490472        -0.231002
 H        -3.210068         2.164949         0.731797
 H        -3.668546         0.922741         2.920030
 H        -2.220497         3.033568         2.659847
 H        -0.976469         2.016160         3.674109
 H        -0.625647         2.662759         0.726285
 H         0.057053        -0.365179         2.672098
 H        -0.868837        -1.612947         1.833439
