19
Iteration:  4951
 O         0.325156         0.117316         0.073698
 C        -0.792748         0.391920         0.882532
 C        -2.124877         0.056286         0.207544
 C        -2.663078         1.286626         0.848139
 C        -2.619698         0.983723         2.457762
 C        -1.521390         2.130349         2.648999
 C        -1.293665         1.904954         1.202575
 O        -2.059804        -0.344400         2.727629
 C        -0.820478        -0.420557         2.115608
 H         1.159789         0.325649         0.558714
 H        -1.871785         0.244330        -0.890315
 H        -2.474452        -0.929770         0.396623
 H        -3.527846         1.932545         0.748850
 H        -3.672230         0.948573         2.976069
 H        -1.971842         3.097328         2.923849
 H        -0.682301         1.902283         3.308522
 H        -0.661165         2.617530         0.669504
 H         0.055528        -0.144712         2.747266
 H        -0.474433        -1.475113         1.934096
