19
Iteration:  2461charge 0 multiplicity 1
 O         0.386072        -0.054579         0.052951
 C        -0.800263         0.392955         0.873931
 C        -2.116540         0.213719         0.069891
 C        -2.636428         1.412416         0.952821
 C        -2.681217         0.980894         2.534092
 C        -1.599031         2.049018         2.720141
 C        -1.154111         1.879421         1.284573
 O        -2.111549        -0.390128         2.662356
 C        -0.791279        -0.428420         2.134627
 H         0.841430         0.764700        -0.198235
 H        -1.762641         0.469939        -0.973911
 H        -2.731745        -0.741878         0.057691
 H        -3.339891         2.129536         0.525078
 H        -3.641215         1.119289         2.913879
 H        -2.093417         3.046415         2.855040
 H        -0.897712         1.890661         3.575633
 H        -0.636948         2.698870         0.785401
 H        -0.119574         0.053031         2.841544
 H        -0.564583        -1.443947         1.890848
