19
Iteration:  1373
 O         0.432822         0.129456         0.122073
 C        -0.785727         0.320212         0.817378
 C        -2.115208         0.198353         0.074942
 C        -2.635889         1.316727         0.943478
 C        -2.629207         0.970979         2.505413
 C        -1.520722         2.064137         2.715706
 C        -1.206141         1.833135         1.201242
 O        -2.162375        -0.289504         2.677609
 C        -0.853511        -0.500681         2.166798
 H         0.659910         0.937270        -0.417769
 H        -1.751652         0.458028        -0.945145
 H        -2.680531        -0.793162         0.024725
 H        -3.516146         1.926967         0.673567
 H        -3.569103         0.992695         3.080856
 H        -1.827381         3.022185         3.162162
 H        -0.921666         1.661190         3.528194
 H        -0.729590         2.656893         0.535660
 H        -0.085214        -0.158907         2.910205
 H        -0.847076        -1.694285         2.110456
