19
Iteration:   409charge 0 multiplicity 1
 O         0.361654         0.098151         0.087528
 C        -0.736323         0.399491         0.899726
 C        -2.109416         0.238814         0.068067
 C        -2.639558         1.394564         0.962867
 C        -2.687584         1.003550         2.448715
 C        -1.544103         1.953393         2.788230
 C        -1.160419         1.885306         1.316376
 O        -2.140195        -0.314760         2.601113
 C        -0.856245        -0.552600         2.045840
 H         1.198930         0.383965         0.499657
 H        -1.914145         0.546002        -0.981736
 H        -2.578112        -0.830615         0.008171
 H        -3.226883         2.183008         0.671319
 H        -3.675473         0.957220         2.931588
 H        -1.775124         2.979227         3.136218
 H        -0.739694         1.654059         3.557258
 H        -0.791732         2.735000         0.769235
 H        -0.147409        -0.577945         2.916437
 H        -0.993225        -1.549060         1.667806
