19
Iteration:  3339
 O         0.490465         0.291023         0.118937
 C        -0.766748         0.325885         0.727417
 C        -2.168468         0.207903         0.007760
 C        -2.622270         1.308630         0.952238
 C        -2.679178         1.013290         2.505273
 C        -1.530678         2.009230         2.685175
 C        -1.162567         1.740753         1.219373
 O        -2.191174        -0.318373         2.822953
 C        -0.872358        -0.479685         2.087800
 H         0.907790        -0.500667         0.479129
 H        -2.065703         0.834389        -0.919711
 H        -2.590871        -0.936480        -0.034472
 H        -3.466404         1.973078         0.640616
 H        -3.642947         1.143196         3.122062
 H        -1.817128         3.007668         3.079892
 H        -0.886752         1.606808         3.538074
 H        -0.680077         2.522693         0.589038
 H        -0.034036        -0.234864         2.714347
 H        -0.784509        -1.597478         2.055529
