19
Iteration:  3776
 O         0.461360         0.177482         0.043018
 C        -0.741799         0.350546         0.798405
 C        -2.067723         0.099962         0.086977
 C        -2.694178         1.211136         0.974211
 C        -2.677295         1.013496         2.558381
 C        -1.537419         2.084648         2.686298
 C        -1.270386         1.755316         1.120598
 O        -2.122034        -0.214620         2.804410
 C        -0.868029        -0.497062         2.135651
 H         0.908203         1.009937         0.337029
 H        -2.247613         0.400645        -0.926236
 H        -2.483563        -0.950646         0.025496
 H        -3.594899         1.701016         0.585087
 H        -3.537278         1.007402         3.190503
 H        -1.868168         3.103713         2.533812
 H        -0.739340         1.954050         3.423189
 H        -0.682285         2.580158         0.641314
 H        -0.112770        -0.090385         2.938717
 H        -0.688262        -1.455669         1.923940
