19
Iteration:  4025
 O         0.409639         0.314707         0.256029
 C        -0.853543         0.372161         0.906728
 C        -2.167451         0.114066         0.060474
 C        -2.705967         1.208461         0.848523
 C        -2.559627         0.965632         2.530532
 C        -1.536158         2.120054         2.552855
 C        -1.287920         1.842529         1.087979
 O        -1.998597        -0.243972         2.881808
 C        -0.861394        -0.597631         2.127895
 H         0.469523        -0.457403        -0.356614
 H        -2.021847         0.477049        -0.987741
 H        -2.567735        -0.863207         0.153321
 H        -3.632037         1.689032         0.474844
 H        -3.456058         1.160496         3.134538
 H        -1.797914         3.158068         2.817062
 H        -0.621509         1.794054         3.096560
 H        -0.665680         2.425516         0.322854
 H         0.207012        -0.382383         2.635660
 H        -0.725007        -1.539465         1.698389
