19
Iteration:  2799charge 0 multiplicity 1
 O         0.553121         0.256673         0.332545
 C        -0.822472         0.294903         0.737459
 C        -2.212128         0.180314         0.017307
 C        -2.659373         1.348328         1.034460
 C        -2.550706         1.050992         2.507112
 C        -1.428407         2.086486         2.648131
 C        -1.248981         1.771752         1.211317
 O        -2.158014        -0.340944         2.728610
 C        -0.955235        -0.643557         1.990319
 H         0.653979         1.029293        -0.262838
 H        -2.307904         0.595009        -1.002463
 H        -2.619568        -0.822522         0.112509
 H        -3.445299         2.138610         0.799553
 H        -3.523039         1.199373         2.980728
 H        -1.889417         3.092486         3.031416
 H        -0.689214         1.655627         3.387007
 H        -0.894496         2.631733         0.527785
 H        -0.090102        -0.587762         2.606396
 H        -0.882383        -1.771613         1.655196
