19
Iteration:  3675
 O         0.331051         0.235012         0.034289
 C        -0.802134         0.320094         0.916149
 C        -2.135392         0.159453         0.123282
 C        -2.630737         1.343502         0.885827
 C        -2.665659         0.936686         2.466715
 C        -1.616674         2.143294         2.617147
 C        -1.168384         1.815532         1.199156
 O        -2.069914        -0.332362         2.787321
 C        -0.756804        -0.490652         2.217119
 H         0.895356        -0.497975         0.307132
 H        -1.772444         0.535196        -0.915572
 H        -2.597658        -0.844451         0.175822
 H        -3.353024         1.858396         0.266989
 H        -3.672298         0.959321         3.036577
 H        -2.228504         3.031416         2.695478
 H        -0.928295         1.973874         3.426078
 H        -0.701713         2.605353         0.513766
 H         0.331235        -0.362180         2.737281
 H        -0.743260        -1.543760         2.066069
