19
Iteration:  1410
 O         0.523810         0.108697         0.402425
 C        -0.816545         0.354182         0.736257
 C        -2.161235         0.237452        -0.090571
 C        -2.686725         1.277250         0.996250
 C        -2.548831         0.963852         2.619577
 C        -1.519050         2.103632         2.678123
 C        -1.254997         1.922585         1.102666
 O        -2.058657        -0.328743         2.810306
 C        -0.988737        -0.575414         1.962848
 H         0.833863         0.628080        -0.360204
 H        -2.082172         0.651935        -1.068058
 H        -2.678381        -0.657237        -0.005289
 H        -3.533702         1.904963         0.775893
 H        -3.550270         1.012501         3.098538
 H        -2.150583         2.989025         2.677686
 H        -0.678813         1.975551         3.389953
 H        -0.722742         2.561008         0.497082
 H         0.017623        -0.471547         2.547974
 H        -1.076648        -1.594368         1.555321
