19
Iteration:  1110
 O         0.449037         0.183849         0.246003
 C        -0.844649         0.375352         0.832559
 C        -2.170784         0.184978         0.062275
 C        -2.650565         1.408297         0.924251
 C        -2.654442         0.992867         2.461778
 C        -1.400926         1.950194         2.702899
 C        -1.163811         1.923058         1.165630
 O        -2.215138        -0.442230         2.721782
 C        -0.846547        -0.524438         2.067365
 H         0.692012         1.029016        -0.202140
 H        -2.087384         0.452048        -0.976032
 H        -2.744801        -0.748668         0.309710
 H        -3.522311         1.961458         0.480411
 H        -3.514631         1.221741         3.063868
 H        -1.707852         2.889256         3.113057
 H        -0.645520         1.653663         3.411492
 H        -0.592434         2.654972         0.576254
 H        -0.002562        -0.170097         2.758369
 H        -0.737776        -1.653954         1.940497
