19
Iteration:  2113charge 0 multiplicity 1
 O         0.534790         0.091140         0.352370
 C        -0.840948         0.430336         0.760353
 C        -2.178024         0.264852        -0.028581
 C        -2.676698         1.239547         0.966716
 C        -2.495114         0.958299         2.517187
 C        -1.493566         2.050938         2.702797
 C        -1.280919         1.890021         1.134719
 O        -2.165092        -0.293855         2.838641
 C        -0.908306        -0.571831         1.995761
 H         0.608237         0.420498        -0.578021
 H        -2.309967         0.660650        -1.044425
 H        -2.611325        -0.772625        -0.089046
 H        -3.598084         1.862334         0.644909
 H        -3.520761         1.097760         3.009690
 H        -1.806236         3.017845         2.928070
 H        -0.605338         2.096449         3.339053
 H        -0.716072         2.714594         0.560483
 H         0.069908        -0.514598         2.553747
 H        -0.838900        -1.603382         1.607247
