19
Iteration:  1873charge 0 multiplicity 1
 O         0.458088         0.083914         0.160647
 C        -0.814042         0.394625         0.857042
 C        -2.117404         0.288475         0.034603
 C        -2.624262         1.390307         0.946357
 C        -2.666723         0.893705         2.466495
 C        -1.545114         2.083939         2.719064
 C        -1.121880         1.843304         1.201241
 O        -2.127074        -0.328826         2.808372
 C        -0.852348        -0.555447         2.040082
 H         0.262093         0.362075        -0.784483
 H        -2.087635         0.535187        -1.043092
 H        -2.731603        -0.650030         0.138062
 H        -3.558571         2.044603         0.691972
 H        -3.717837         0.975468         2.947980
 H        -2.004487         3.070364         2.948233
 H        -0.998664         1.732465         3.627537
 H        -0.613829         2.585142         0.624927
 H        -0.024278        -0.236104         2.778837
 H        -0.810240        -1.684347         1.952414
