19
Iteration:  3126charge 0 multiplicity 1
 O         0.496942         0.260062         0.055931
 C        -0.693051         0.372596         0.891475
 C        -2.119273         0.211547         0.166694
 C        -2.607085         1.287013         1.014579
 C        -2.633372         0.965536         2.501773
 C        -1.569959         2.116516         2.707253
 C        -1.183920         1.797188         1.254471
 O        -2.193181        -0.350938         2.618411
 C        -0.954746        -0.548362         2.069508
 H         0.920671        -0.592393         0.233142
 H        -2.175949         0.522094        -0.967905
 H        -2.766594        -0.726137         0.412403
 H        -3.350362         2.029290         0.642043
 H        -3.597297         0.985175         3.016404
 H        -1.915812         3.167867         2.650791
 H        -0.984481         2.047567         3.611155
 H        -0.734657         2.627139         0.666177
 H        -0.050086        -0.513268         2.649563
 H        -0.963941        -1.626559         1.584341
