19
Iteration:  1741
 O         0.410995         0.049632         0.077481
 C        -0.736514         0.327011         0.813190
 C        -2.135686         0.171695         0.085901
 C        -2.636590         1.306117         0.942056
 C        -2.699322         0.999989         2.514135
 C        -1.585544         2.063457         2.723001
 C        -1.105485         1.911335         1.271263
 O        -2.135747        -0.317407         2.716666
 C        -0.858630        -0.472998         2.081111
 H         0.775152         0.916518        -0.239301
 H        -1.921671         0.558994        -0.888652
 H        -2.636989        -0.776477         0.120913
 H        -3.547339         1.880013         0.668673
 H        -3.612210         1.185404         3.022387
 H        -2.091780         2.967149         3.066799
 H        -0.827303         1.918535         3.572379
 H        -0.608935         2.670683         0.806392
 H        -0.045357        -0.332683         2.751245
 H        -0.692788        -1.505491         1.802015
