19
Iteration:   804charge 0 multiplicity 1
 O         0.442871         0.039057         0.080178
 C        -0.743907         0.412699         0.783384
 C        -2.130047         0.348992        -0.057263
 C        -2.510899         1.417054         0.997596
 C        -2.681191         0.886922         2.514046
 C        -1.633803         1.972987         2.829274
 C        -1.119967         1.893804         1.342214
 O        -2.124702        -0.334343         2.702066
 C        -0.956963        -0.481492         1.995699
 H         0.651149        -0.851911         0.347053
 H        -1.991585         0.948953        -0.918009
 H        -2.500044        -0.691531         0.025860
 H        -3.217941         2.111595         0.801290
 H        -3.674517         0.916915         2.987320
 H        -2.128436         2.963552         3.077885
 H        -0.965923         1.862765         3.736710
 H        -0.871958         2.810490         0.744363
 H        -0.005691        -0.354718         2.660902
 H        -0.959099        -1.516976         1.714744
