19
Iteration:  2876
 O         0.416845        -0.020929         0.208970
 C        -0.799390         0.429643         0.804376
 C        -2.133577         0.285696         0.151483
 C        -2.654924         1.487955         0.979661
 C        -2.660479         0.928597         2.515666
 C        -1.593513         1.976193         2.774293
 C        -1.125351         1.926909         1.224684
 O        -2.131833        -0.425999         2.545951
 C        -0.782416        -0.456134         2.088994
 H         0.488243         0.100915        -0.766263
 H        -2.327163         0.514650        -0.861078
 H        -2.526249        -0.681920         0.180376
 H        -3.537613         2.084317         0.552486
 H        -3.630790         0.853434         3.027565
 H        -2.087554         2.975778         3.075501
 H        -0.733039         1.937896         3.484424
 H        -0.656821         2.627611         0.440238
 H        -0.137024         0.130296         2.714996
 H        -0.312943        -1.460764         2.164349
