19
Iteration:  4160charge 0 multiplicity 1
 O         0.416600         0.192387         0.316211
 C        -0.793930         0.427848         0.843481
 C        -2.154864         0.147108         0.095051
 C        -2.739068         1.219824         0.949266
 C        -2.555582         0.980086         2.527236
 C        -1.491776         2.122892         2.541016
 C        -1.363472         1.894676         1.003341
 O        -2.004763        -0.391882         2.819093
 C        -0.823249        -0.408884         2.117173
 H         0.279113        -0.558668        -0.271616
 H        -2.280466         0.277875        -0.933655
 H        -2.452348        -0.947833         0.292641
 H        -3.638862         1.804936         0.681507
 H        -3.375281         0.972348         3.234521
 H        -1.930183         3.030683         2.894162
 H        -0.605087         2.032022         3.129795
 H        -0.840355         2.396582         0.184628
 H         0.152528        -0.147805         2.686071
 H        -0.730138        -1.378184         1.588897
