19
Iteration:  2243charge 0 multiplicity 1
 O         0.498460         0.105412         0.354993
 C        -0.731995         0.379340         0.774755
 C        -2.245504         0.202702        -0.153456
 C        -2.683628         1.337692         0.982301
 C        -2.604858         0.948553         2.634808
 C        -1.466703         2.080790         2.662387
 C        -1.234594         1.870391         1.132526
 O        -2.123406        -0.317556         2.811968
 C        -0.923390        -0.548313         2.035775
 H         0.787577         0.323794        -0.552299
 H        -2.112159         0.790982        -1.063075
 H        -2.606372        -0.816218        -0.386939
 H        -3.572774         1.986134         0.686417
 H        -3.488004         0.967631         3.309980
 H        -2.084435         3.089245         2.819548
 H        -0.592754         1.949438         3.422924
 H        -0.696181         2.619498         0.510002
 H         0.060082        -0.279262         2.616589
 H        -0.904792        -1.609225         1.710271
