19
Iteration:  3239charge 0 multiplicity 1
 O         0.440416         0.182147         0.207565
 C        -0.812020         0.349527         0.943964
 C        -2.169583         0.231639         0.007540
 C        -2.643405         1.400806         0.870354
 C        -2.618427         0.930988         2.417282
 C        -1.497042         1.987662         2.688170
 C        -1.205474         1.818301         1.210485
 O        -2.137175        -0.306309         2.775932
 C        -0.865939        -0.581578         2.091231
 H         0.663940         1.058073        -0.173077
 H        -2.021675         0.544740        -1.081371
 H        -2.789934        -0.795285         0.222349
 H        -3.297632         2.166599         0.543900
 H        -3.554651         0.982624         2.997373
 H        -1.870887         2.988930         2.982717
 H        -0.623743         1.828364         3.352455
 H        -0.548263         2.511569         0.668860
 H        -0.038709        -0.407539         2.812610
 H        -0.927122        -1.658113         1.754061
