19
Iteration:  3411charge 0 multiplicity 1
 O         0.508461         0.031248         0.159221
 C        -0.798707         0.350001         0.759715
 C        -2.164198         0.189316         0.050163
 C        -2.652276         1.341616         0.978701
 C        -2.667620         0.989510         2.553758
 C        -1.590726         1.998696         2.725739
 C        -1.214329         1.881733         1.192942
 O        -2.172753        -0.321217         2.678240
 C        -0.782795        -0.425271         2.136416
 H         0.845169         0.846341        -0.268906
 H        -2.120101         0.504913        -1.016899
 H        -2.671897        -0.748056         0.296834
 H        -3.345489         2.086879         0.635348
 H        -3.657129         1.026671         3.050072
 H        -1.966722         3.048175         2.904996
 H        -0.720503         1.734144         3.382926
 H        -0.682087         2.585002         0.504623
 H        -0.039695         0.046446         2.886134
 H        -0.465373        -1.521921         2.016060
