19
Iteration:  3322charge 0 multiplicity 1
 O         0.399096         0.172255         0.164065
 C        -0.836471         0.382101         0.906541
 C        -2.129478         0.204860         0.036495
 C        -2.676762         1.355620         0.930221
 C        -2.653096         0.969619         2.484414
 C        -1.458008         1.979249         2.743030
 C        -1.215482         1.869916         1.173658
 O        -2.115809        -0.353133         2.655770
 C        -0.869869        -0.479779         2.104333
 H         1.076197        -0.201976         0.747223
 H        -1.959441         0.340940        -1.030303
 H        -2.577725        -0.710762         0.207633
 H        -3.444567         2.073776         0.603563
 H        -3.587375         1.066532         2.975937
 H        -1.882540         2.984955         2.764613
 H        -0.639166         1.774000         3.422324
 H        -0.718894         2.709906         0.689918
 H         0.072335        -0.123609         2.713493
 H        -0.705746        -1.512314         1.799904
