19
Iteration:  1036charge 0 multiplicity 1
 O         0.439018         0.155704         0.209307
 C        -0.800287         0.391188         0.779546
 C        -2.127340         0.294318        -0.006362
 C        -2.662348         1.365485         0.900665
 C        -2.607750         0.947773         2.468755
 C        -1.570196         1.963394         2.715459
 C        -1.131869         1.868308         1.242858
 O        -2.092160        -0.346466         2.869515
 C        -0.927945        -0.546022         2.038846
 H         0.362768        -0.107570        -0.720858
 H        -2.039117         0.958463        -0.953431
 H        -2.439352        -0.761922        -0.010953
 H        -3.514755         1.936062         0.656585
 H        -3.565076         1.098571         2.969074
 H        -2.032290         2.990546         2.878979
 H        -0.877590         1.764719         3.572552
 H        -0.432864         2.740124         0.793887
 H        -0.101033        -0.497758         2.728049
 H        -0.872890        -1.596937         1.716471
