19
Iteration:   747
 O         0.474673         0.361184         0.209146
 C        -0.814535         0.405697         0.820809
 C        -2.164176         0.220754         0.095317
 C        -2.629335         1.412160         0.943615
 C        -2.610438         1.025571         2.521448
 C        -1.396551         1.915458         2.735470
 C        -1.059364         1.795213         1.256408
 O        -2.314016        -0.401845         2.620970
 C        -0.950328        -0.586488         2.025516
 H         0.990140        -0.476969         0.111943
 H        -2.241609         0.371466        -1.011482
 H        -2.603272        -0.853694         0.268925
 H        -3.570004         1.922798         0.654743
 H        -3.551826         1.445774         3.096805
 H        -1.808896         2.889516         2.869010
 H        -0.729266         1.516755         3.493674
 H        -0.449939         2.488797         0.682988
 H        -0.085680        -0.378724         2.689423
 H        -0.925263        -1.639147         1.638055
