19
Iteration:  2503charge 0 multiplicity 1
 O         0.509260         0.178837         0.237570
 C        -0.769454         0.321338         0.799786
 C        -2.155671         0.175448         0.029913
 C        -2.662491         1.292998         0.898919
 C        -2.651331         1.049805         2.565647
 C        -1.495669         2.093785         2.719166
 C        -1.213862         1.787370         1.233873
 O        -2.123288        -0.295310         2.779515
 C        -0.938774        -0.574955         1.995461
 H         0.589477         0.862765        -0.433180
 H        -2.069514         0.686583        -1.020264
 H        -2.683063        -0.808725        -0.173179
 H        -3.369270         1.991376         0.465355
 H        -3.345501         0.955653         3.321335
 H        -1.750084         3.143153         2.902827
 H        -0.734689         1.863466         3.400319
 H        -0.862675         2.592071         0.573450
 H        -0.062599        -0.565574         2.682631
 H        -1.135970        -1.723467         1.663722
