19
Iteration:   514charge 0 multiplicity 1
 O         0.435133         0.235603         0.011222
 C        -0.747202         0.285281         0.856469
 C        -2.094429         0.157914         0.073785
 C        -2.561336         1.419828         0.939402
 C        -2.713893         1.028890         2.502378
 C        -1.539465         1.962872         2.799144
 C        -1.091002         1.864892         1.305601
 O        -2.269195        -0.382636         2.634874
 C        -0.834031        -0.482608         2.185834
 H         0.214907        -0.239860        -0.792442
 H        -1.900099         0.662583        -0.872770
 H        -2.722266        -0.714832        -0.006894
 H        -3.353823         2.122658         0.429024
 H        -3.723164         1.235306         3.027113
 H        -1.896485         2.932412         3.003360
 H        -0.905360         1.520794         3.510489
 H        -0.515251         2.602692         0.753369
 H        -0.136511        -0.118098         3.000752
 H        -0.638215        -1.608965         2.216916
