19
Iteration:  3028
 O         0.394679         0.235581         0.120194
 C        -0.751044         0.329942         0.886901
 C        -2.141532         0.226106         0.173488
 C        -2.576528         1.411682         0.899648
 C        -2.637657         1.043249         2.396732
 C        -1.639443         2.039417         2.681785
 C        -1.138256         1.850443         1.318706
 O        -2.089738        -0.354780         2.709246
 C        -0.869229        -0.650302         2.083359
 H         0.052246        -0.202420        -0.682063
 H        -1.856833         0.361127        -0.956210
 H        -2.520177        -0.808112         0.468998
 H        -3.487670         2.042348         0.632916
 H        -3.631191         0.964087         2.851155
 H        -2.092556         3.053487         2.765506
 H        -1.096614         1.727221         3.540055
 H        -0.329826         2.511658         0.902666
 H        -0.016075        -0.245988         2.812568
 H        -0.750475        -1.611039         1.668323
