19
Iteration:  2095charge 0 multiplicity 1
 O         0.542922         0.190316         0.286089
 C        -0.778212         0.279088         0.798418
 C        -2.148170         0.172548        -0.007602
 C        -2.711938         1.357320         1.010546
 C        -2.659407         1.033011         2.560472
 C        -1.466984         2.123371         2.667922
 C        -1.202235         1.833433         1.158667
 O        -2.100010        -0.338611         2.766693
 C        -0.976692        -0.598567         2.003193
 H         0.649055         0.412847        -0.673213
 H        -2.036317         0.684973        -0.979601
 H        -2.741245        -0.748260         0.014632
 H        -3.494029         2.011606         0.740230
 H        -3.481657         1.018444         3.254375
 H        -2.000398         3.158040         2.835694
 H        -0.712681         1.820081         3.376267
 H        -0.899396         2.583737         0.497033
 H        -0.104995        -0.407744         2.717401
 H        -0.834145        -1.679731         1.643063
