19
Iteration:  3174
 O         0.402443         0.198811         0.228612
 C        -0.820807         0.377353         0.846264
 C        -2.110215         0.240969         0.003263
 C        -2.633211         1.414633         0.934777
 C        -2.702708         0.881222         2.402062
 C        -1.509616         1.956303         2.677591
 C        -1.174564         1.887986         1.226258
 O        -2.122307        -0.321395         2.772325
 C        -0.827270        -0.526151         2.124399
 H         0.179364        -0.439174        -0.478507
 H        -1.843106         0.710019        -0.927472
 H        -2.443129        -0.831961        -0.100611
 H        -3.379733         2.154793         0.824851
 H        -3.731575         1.052295         2.725600
 H        -1.982110         2.865118         3.021867
 H        -0.800957         1.780011         3.492984
 H        -0.480343         2.503840         0.656857
 H         0.108265        -0.181315         2.681916
 H        -0.667762        -1.550372         2.077295
