19
Iteration:  3688
 O         0.379323         0.229883        -0.019759
 C        -0.723332         0.322548         0.865328
 C        -2.018048         0.139268         0.068426
 C        -2.640469         1.268675         0.895982
 C        -2.642242         1.005104         2.502172
 C        -1.646476         2.070473         2.680867
 C        -1.245028         1.847495         1.180763
 O        -2.139115        -0.296860         2.874031
 C        -0.783995        -0.512931         2.166688
 H         0.754992        -0.684479        -0.026303
 H        -1.855795         0.486337        -0.960682
 H        -2.634340        -0.789762         0.034968
 H        -3.480171         1.935039         0.774614
 H        -3.589907         1.131611         3.020731
 H        -2.081587         3.090306         2.669391
 H        -0.963577         2.125988         3.555904
 H        -0.698700         2.546943         0.515122
 H        -0.162289        -0.041809         3.044700
 H        -0.634920        -1.527102         1.939284
