19
Iteration:  1397
 O         0.457430         0.094754         0.334489
 C        -0.838484         0.443907         0.806068
 C        -2.181630         0.255745        -0.034987
 C        -2.714866         1.310412         0.904361
 C        -2.569922         0.960375         2.521477
 C        -1.504093         2.109612         2.608109
 C        -1.185540         1.826427         1.178737
 O        -2.109835        -0.395291         2.849290
 C        -0.868650        -0.561975         2.020436
 H         0.828829         0.835132        -0.198200
 H        -2.059169         0.728327        -0.979844
 H        -2.546856        -0.712889        -0.237474
 H        -3.504223         1.895842         0.636745
 H        -3.322106         1.181166         3.276743
 H        -1.899886         3.103769         2.812282
 H        -0.840169         2.022720         3.449472
 H        -0.920234         2.615225         0.559832
 H         0.075108        -0.481824         2.698973
 H        -0.912766        -1.636344         1.561226
