19
Iteration:  1716
 O         0.441285         0.182692         0.327328
 C        -0.819765         0.339993         0.803200
 C        -2.209284         0.205097         0.063393
 C        -2.707071         1.377129         0.882312
 C        -2.663814         0.997344         2.504983
 C        -1.359712         2.023513         2.658516
 C        -1.243214         1.832642         1.166229
 O        -2.129123        -0.381924         2.734658
 C        -0.866774        -0.568398         2.062280
 H         0.764585         0.970596        -0.195295
 H        -2.018279         0.624231        -0.981800
 H        -2.626674        -0.813906         0.065479
 H        -3.476368         2.099505         0.604904
 H        -3.543815         1.275035         3.102469
 H        -1.740272         2.970732         3.001195
 H        -0.503803         1.691845         3.286788
 H        -0.817004         2.549295         0.364384
 H        -0.030484        -0.139638         2.762487
 H        -0.470087        -1.649941         1.873341
