19
Iteration:  3884
 O         0.395118         0.395600         0.215552
 C        -0.847273         0.283251         0.906606
 C        -2.108628         0.096739         0.084566
 C        -2.667160         1.249671         0.839152
 C        -2.614228         0.941697         2.476457
 C        -1.460165         2.104031         2.560499
 C        -1.277512         1.847080         1.099085
 O        -2.057683        -0.274526         2.857612
 C        -0.848680        -0.550393         2.190533
 H         0.521216        -0.296015        -0.472224
 H        -1.956700         0.259335        -0.993836
 H        -2.637367        -0.771446         0.498907
 H        -3.587154         1.762457         0.568206
 H        -3.505837         1.022881         3.120638
 H        -1.851852         3.081886         2.783613
 H        -0.590432         1.914097         3.196760
 H        -0.900474         2.523214         0.273820
 H         0.010872        -0.489587         2.801170
 H        -0.913627        -1.710229         1.738988
