19
Iteration:   637
 O         0.391390         0.120897         0.163461
 C        -0.804902         0.416328         0.867127
 C        -2.148440         0.192040         0.088274
 C        -2.564340         1.400555         0.945353
 C        -2.624780         1.075304         2.473428
 C        -1.538504         1.979212         2.787367
 C        -1.097543         1.856080         1.268640
 O        -2.203386        -0.383737         2.569993
 C        -0.872787        -0.567854         2.069264
 H         0.713299         0.866433        -0.343213
 H        -1.963392         0.412361        -0.924223
 H        -2.556484        -0.813864         0.383300
 H        -3.331818         2.139591         0.627811
 H        -3.602275         1.052233         3.103127
 H        -1.836378         2.940295         3.190463
 H        -0.939698         1.598639         3.663077
 H        -0.648049         2.578816         0.610201
 H        -0.095773        -0.283604         2.828717
 H        -0.832544        -1.623513         1.687193
