19
Iteration:   598
 O         0.479055         0.214180         0.290156
 C        -0.797606         0.328009         0.788949
 C        -2.114382         0.265275        -0.042994
 C        -2.693767         1.359318         1.025611
 C        -2.601810         1.009006         2.602271
 C        -1.411933         1.975732         2.663523
 C        -1.144952         1.809109         1.144289
 O        -2.226120        -0.400133         2.698016
 C        -0.987020        -0.578796         2.074871
 H         0.809779         1.114537         0.082713
 H        -2.096260         0.870022        -1.043937
 H        -2.621723        -0.607545        -0.448350
 H        -3.482067         2.034615         0.637118
 H        -3.405649         1.224357         3.219696
 H        -1.533213         3.099927         2.951826
 H        -0.770618         1.698537         3.553371
 H        -0.742476         2.516114         0.320970
 H        -0.102147        -0.520842         2.716222
 H        -0.985752        -1.590098         1.688428
