19
Iteration:  4063charge 0 multiplicity 1
 O         0.546648         0.152760         0.096865
 C        -0.806688         0.353929         0.769872
 C        -2.156633         0.136291         0.096800
 C        -2.703475         1.221954         1.018413
 C        -2.625214         1.021074         2.579681
 C        -1.581780         2.112637         2.573841
 C        -1.273018         1.811726         1.159327
 O        -2.095752        -0.348045         2.780369
 C        -0.773074        -0.313052         2.140751
 H         0.334930        -0.758740        -0.150496
 H        -2.302815         0.532400        -0.890032
 H        -2.582196        -0.920448         0.132128
 H        -3.516736         1.712577         0.473457
 H        -3.467509         1.014303         3.259201
 H        -2.015441         3.089922         2.767626
 H        -0.796596         2.046426         3.312913
 H        -0.816659         2.527622         0.538355
 H        -0.199326         0.105616         2.865962
 H        -0.703283        -1.469947         2.150819
