19
Iteration:  1416
 O         0.552968         0.107550         0.401852
 C        -0.808903         0.322107         0.760833
 C        -2.130571         0.226883        -0.069927
 C        -2.662337         1.306393         1.014269
 C        -2.583312         0.952828         2.582237
 C        -1.519099         2.084532         2.687078
 C        -1.298804         1.909871         1.141849
 O        -2.047004        -0.294015         2.794691
 C        -0.998110        -0.588923         1.943912
 H         0.661550         0.601385        -0.462777
 H        -2.292818         0.719862        -1.089215
 H        -2.656179        -0.822913        -0.031748
 H        -3.582047         1.908321         0.805333
 H        -3.546683         1.099374         3.052175
 H        -2.039648         3.072067         2.802335
 H        -0.601434         2.162648         3.273504
 H        -0.764074         2.662911         0.394117
 H        -0.066176        -0.446992         2.419089
 H        -1.084001        -1.657494         1.546435
