19
Iteration:  1506
 O         0.411985        -0.026514         0.167958
 C        -0.734672         0.434749         0.832786
 C        -2.105080         0.209133         0.064453
 C        -2.649331         1.355814         0.952767
 C        -2.708443         0.983905         2.462162
 C        -1.574928         2.092057         2.782885
 C        -1.205359         1.885041         1.236675
 O        -2.124202        -0.368760         2.688112
 C        -0.776832        -0.468685         2.081209
 H         0.641722         0.619793        -0.539360
 H        -2.068512         0.469965        -1.018704
 H        -2.665823        -0.731177         0.310568
 H        -3.511522         1.925761         0.677240
 H        -3.710673         0.946105         2.939164
 H        -1.891277         3.172294         2.821536
 H        -0.784195         1.957246         3.533040
 H        -0.787060         2.763924         0.711381
 H         0.006003        -0.283937         2.804262
 H        -0.674115        -1.542805         1.671937
