19
Iteration:  2738
 O         0.383012         0.032776         0.052957
 C        -0.780827         0.349390         0.827950
 C        -2.033769         0.250358         0.032286
 C        -2.657093         1.387399         0.940852
 C        -2.670097         0.972290         2.476495
 C        -1.608738         2.066573         2.775920
 C        -1.142222         1.824779         1.308458
 O        -2.127557        -0.339054         2.719146
 C        -0.801735        -0.453434         2.190381
 H         0.232150         0.336636        -0.859358
 H        -2.081771         0.665651        -1.002847
 H        -2.336347        -0.761943        -0.359704
 H        -3.389234         2.057318         0.475594
 H        -3.639848         0.866808         3.028334
 H        -2.025721         2.987947         3.048867
 H        -0.912513         1.834067         3.574704
 H        -0.701174         2.661579         0.815492
 H         0.021745        -0.168794         2.915968
 H        -0.816509        -1.466818         1.945682
