19
Iteration:  3764charge 0 multiplicity 1
 O         0.483030         0.200157         0.158744
 C        -0.837050         0.345507         0.815216
 C        -2.145895         0.030200         0.079262
 C        -2.721436         1.242275         0.998401
 C        -2.606413         1.002218         2.524758
 C        -1.492693         2.104805         2.588902
 C        -1.217410         1.840384         1.159379
 O        -2.126970        -0.328729         2.769300
 C        -0.862068        -0.453276         2.125786
 H         0.862764         1.075296         0.003445
 H        -1.992909         0.446175        -0.929892
 H        -2.415954        -1.042793         0.157236
 H        -3.475255         1.952636         0.701744
 H        -3.510605         1.189995         3.106919
 H        -1.990683         3.038156         2.807667
 H        -0.713646         2.056440         3.339198
 H        -0.956330         2.512843         0.319927
 H         0.051252        -0.178790         2.741878
 H        -0.858803        -1.459342         1.965109
