19
Iteration:  2969charge 0 multiplicity 1
 O         0.447067         0.023772         0.256851
 C        -0.789748         0.458389         0.904549
 C        -2.181942         0.254623         0.028034
 C        -2.665317         1.369643         0.980998
 C        -2.601290         0.944720         2.520569
 C        -1.507166         2.085643         2.659498
 C        -1.263716         1.894438         1.169187
 O        -2.126630        -0.390554         2.703115
 C        -0.837322        -0.549930         2.031888
 H         0.909000         0.744265        -0.178412
 H        -1.976324         0.625479        -1.007938
 H        -2.572581        -0.784875        -0.153721
 H        -3.401938         2.081044         0.691149
 H        -3.510656         1.043901         3.125063
 H        -2.024903         2.945530         3.018651
 H        -0.630118         1.940735         3.323124
 H        -0.896247         2.734102         0.650625
 H        -0.063681        -0.562615         2.717356
 H        -0.701771        -1.511723         1.484617
