19
Iteration:  2869
 O         0.470946        -0.055049         0.176225
 C        -0.731104         0.346876         0.776605
 C        -2.181334         0.278234         0.137459
 C        -2.693736         1.461034         1.006467
 C        -2.654908         0.934496         2.475541
 C        -1.597464         2.031134         2.785540
 C        -1.219177         1.931866         1.292893
 O        -2.133616        -0.404463         2.552623
 C        -0.789007        -0.416461         2.056879
 H         0.598446         0.178054        -0.772136
 H        -2.184911         0.763074        -0.919052
 H        -2.705134        -0.746804         0.285871
 H        -3.373397         2.236365         0.669955
 H        -3.532489         0.946744         3.137651
 H        -2.147148         2.961750         2.865376
 H        -0.806064         1.904776         3.572292
 H        -0.480885         2.541842         0.780552
 H        -0.008547         0.117893         2.736924
 H        -0.256177        -1.482522         2.161657
