19
Iteration:  3443
 O         0.352745         0.143593         0.079801
 C        -0.810301         0.386016         0.839676
 C        -2.058112         0.185923         0.014211
 C        -2.649128         1.302724         0.922016
 C        -2.625208         0.983406         2.527116
 C        -1.533124         2.071011         2.681741
 C        -1.213438         1.847222         1.191444
 O        -2.150439        -0.319128         2.743347
 C        -0.808668        -0.547107         2.180604
 H         1.023213         0.596359         0.637411
 H        -1.952552         0.463847        -1.077373
 H        -2.623855        -0.784029         0.060669
 H        -3.457269         1.959258         0.623462
 H        -3.557604         1.171182         3.094203
 H        -2.032160         3.069837         2.920277
 H        -0.712222         1.836915         3.417586
 H        -0.658805         2.490547         0.475823
 H        -0.126424        -0.246752         2.976142
 H        -0.666198        -1.616211         1.974298
