19
Iteration:  4414
 O         0.489267         0.270548         0.128768
 C        -0.791832         0.326716         0.789613
 C        -2.156358         0.049979         0.116524
 C        -2.673596         1.211679         0.997369
 C        -2.661813         1.004280         2.528828
 C        -1.555099         2.139304         2.609035
 C        -1.257244         1.788089         1.133717
 O        -2.037673        -0.235463         2.843317
 C        -0.858385        -0.467454         2.119688
 H         0.608332        -0.631304        -0.253460
 H        -2.127534         0.269752        -0.992156
 H        -2.473698        -1.025817         0.194379
 H        -3.538827         1.779360         0.720206
 H        -3.577898         1.147055         3.109122
 H        -2.047234         3.134920         2.373699
 H        -0.913769         2.168361         3.503585
 H        -0.899145         2.541991         0.426270
 H         0.033867        -0.144861         2.565553
 H        -0.730359        -1.537367         1.830381
