19
Iteration:  2840charge 0 multiplicity 1
 O         0.366898         0.055979         0.112779
 C        -0.752319         0.403636         0.805055
 C        -2.061272         0.257128        -0.005117
 C        -2.617033         1.327715         0.980141
 C        -2.669336         0.957839         2.484537
 C        -1.585330         2.052834         2.812657
 C        -1.167828         1.869542         1.221146
 O        -2.125375        -0.333682         2.780193
 C        -0.875176        -0.547688         2.065852
 H         0.647239         0.733492        -0.535735
 H        -1.971315         0.813745        -0.919797
 H        -2.453641        -0.761873         0.027030
 H        -3.283647         2.098038         0.631295
 H        -3.582995         1.012105         3.079083
 H        -2.036661         3.025875         2.917387
 H        -0.878945         1.759225         3.566375
 H        -0.603837         2.565070         0.571372
 H        -0.029578        -0.222940         2.718847
 H        -0.831765        -1.554085         1.849361
