19
Iteration:  4949
 O         0.317552         0.108885         0.082235
 C        -0.791700         0.397507         0.877131
 C        -2.106877         0.063417         0.213784
 C        -2.669618         1.302439         0.848883
 C        -2.633529         0.976370         2.462531
 C        -1.522679         2.129713         2.653268
 C        -1.295880         1.916941         1.182713
 O        -2.053227        -0.354844         2.718027
 C        -0.815768        -0.416186         2.114627
 H         1.150893         0.273828         0.558679
 H        -1.907977         0.185947        -0.886911
 H        -2.515727        -0.947565         0.411204
 H        -3.520937         1.883875         0.744216
 H        -3.628578         0.988553         3.011405
 H        -1.964315         3.112066         2.935826
 H        -0.712585         1.868662         3.307954
 H        -0.623663         2.627805         0.720939
 H         0.061057        -0.116113         2.726313
 H        -0.441225        -1.498515         1.982263
