19
Iteration:  4694
 O         0.520756         0.282719         0.163092
 C        -0.758863         0.415456         0.763748
 C        -2.224267         0.019545         0.141588
 C        -2.704232         1.273612         0.929255
 C        -2.670679         0.983452         2.594068
 C        -1.514187         2.095791         2.610782
 C        -1.247975         1.809967         1.076804
 O        -2.107463        -0.350754         2.793342
 C        -0.834374        -0.386424         2.110697
 H         0.882713        -0.638730         0.144246
 H        -2.170140         0.274527        -0.928989
 H        -2.485365        -1.083164         0.409908
 H        -3.507209         1.844050         0.559610
 H        -3.448615         1.113750         3.272672
 H        -2.086695         3.007455         2.707237
 H        -0.649264         2.089377         3.318831
 H        -0.830187         2.502950         0.304592
 H         0.016449        -0.097565         2.735906
 H        -0.776982        -1.566042         2.010297
