19
Iteration:  1288charge 0 multiplicity 1
 O         0.514742         0.091958         0.299623
 C        -0.791870         0.448788         0.764541
 C        -2.104606         0.288643        -0.107464
 C        -2.668206         1.238722         0.994004
 C        -2.602747         0.979776         2.592274
 C        -1.473062         1.988240         2.657605
 C        -1.263180         1.861476         1.150834
 O        -2.120222        -0.317921         2.863210
 C        -0.987270        -0.506063         2.024695
 H         0.659206         0.281700        -0.633678
 H        -2.086297         0.839968        -1.034840
 H        -2.484990        -0.632634        -0.434143
 H        -3.474035         1.870131         0.776568
 H        -3.487868         1.333225         3.131711
 H        -2.031094         2.926918         2.840346
 H        -0.808384         1.852874         3.510490
 H        -0.857583         2.623360         0.604555
 H         0.032159        -0.614181         2.534839
 H        -0.976721        -1.578711         1.755000
