19
Iteration:  1430charge 0 multiplicity 1
 O         0.544588         0.135409         0.309608
 C        -0.793474         0.409843         0.814930
 C        -2.141847         0.209037         0.039454
 C        -2.731570         1.268518         0.967863
 C        -2.637969         1.010411         2.476023
 C        -1.473870         2.158734         2.683116
 C        -1.268457         1.837942         1.228941
 O        -2.089932        -0.285100         2.787484
 C        -0.915520        -0.638444         1.954533
 H         0.609419         0.313641        -0.625707
 H        -2.039217         0.719208        -0.914349
 H        -2.436764        -0.816413        -0.095433
 H        -3.441781         1.907505         0.594444
 H        -3.516481         1.049194         3.129875
 H        -1.921874         3.141609         2.892963
 H        -0.742429         1.694268         3.322884
 H        -0.991132         2.626201         0.569090
 H         0.002610        -0.708079         2.635231
 H        -1.137354        -1.716324         1.532351
