19
Iteration:   351charge 0 multiplicity 1
 O         0.389413         0.129801         0.120655
 C        -0.785776         0.317442         0.850231
 C        -2.040033         0.305267         0.075012
 C        -2.720370         1.436675         0.918360
 C        -2.708193         1.007038         2.464763
 C        -1.481377         1.927036         2.774973
 C        -1.104455         1.825790         1.264094
 O        -2.196798        -0.363363         2.694509
 C        -0.867179        -0.534047         2.050985
 H         0.746431         1.041034         0.279881
 H        -1.751663         0.710684        -0.901171
 H        -2.512360        -0.707404         0.048381
 H        -3.472304         2.094118         0.539931
 H        -3.726598         1.056391         2.973051
 H        -1.755140         2.971567         3.012120
 H        -0.709788         1.471907         3.549567
 H        -0.526418         2.515003         0.679462
 H        -0.014773        -0.350159         2.762247
 H        -0.775368        -1.608496         1.789943
