19
Iteration:  1838charge 0 multiplicity 1
 O         0.525891         0.267603         0.316314
 C        -0.801860         0.383705         0.832828
 C        -2.122660         0.200428         0.046178
 C        -2.716399         1.296340         1.047623
 C        -2.601998         0.987289         2.543753
 C        -1.375987         2.118324         2.661688
 C        -1.238089         1.832827         1.167257
 O        -2.207937        -0.331436         2.699660
 C        -0.962815        -0.645518         1.981924
 H         0.525183         0.063742        -0.664018
 H        -2.017268         0.554450        -1.023716
 H        -2.619823        -0.765347         0.148990
 H        -3.598081         1.860813         0.671931
 H        -3.415810         1.161085         3.224892
 H        -1.585014         3.112706         2.814365
 H        -0.565519         1.811692         3.337199
 H        -0.817758         2.281367         0.223536
 H        -0.110434        -0.547806         2.686307
 H        -0.943343        -1.699924         1.522562
