19
Iteration:  2474charge 0 multiplicity 1
 O         0.317044         0.043167         0.129704
 C        -0.754498         0.357270         0.824055
 C        -2.126556         0.308915         0.052038
 C        -2.630729         1.374229         0.853764
 C        -2.663440         0.961040         2.421481
 C        -1.585456         2.057473         2.725531
 C        -1.105707         1.854752         1.249520
 O        -2.125430        -0.385841         2.792729
 C        -0.797988        -0.503622         2.146297
 H         0.846877         0.758779        -0.264519
 H        -2.197738         0.708072        -0.964022
 H        -2.563571        -0.710589         0.069626
 H        -3.499192         1.995937         0.529031
 H        -3.439691         0.795096         3.217154
 H        -2.044679         3.084687         2.749136
 H        -0.900654         1.964079         3.689071
 H        -0.607017         2.653602         0.679854
 H         0.056621        -0.328993         2.816930
 H        -0.645551        -1.481865         2.006656
