19
Iteration:  3839charge 0 multiplicity 1
 O         0.491506         0.128592         0.103014
 C        -0.758653         0.403789         0.778566
 C        -2.166259         0.063722         0.105070
 C        -2.709485         1.329686         1.033349
 C        -2.646336         0.973587         2.549034
 C        -1.614686         2.167009         2.669327
 C        -1.293358         1.815508         1.103307
 O        -2.062322        -0.338673         2.698724
 C        -0.766011        -0.401266         2.148902
 H         0.822265        -0.788135         0.293452
 H        -2.113268         0.573689        -0.910613
 H        -2.575348        -0.939339         0.199126
 H        -3.491509         1.949766         0.669098
 H        -3.651084         0.909529         3.067018
 H        -2.158603         3.091459         2.681142
 H        -0.856426         2.123168         3.444016
 H        -0.763039         2.670704         0.611468
 H        -0.104102         0.015066         2.855159
 H        -0.413916        -1.580401         2.166098
