19
Iteration:  4960
 O         0.370451         0.175710         0.032837
 C        -0.796814         0.360002         0.892425
 C        -2.154630         0.058785         0.100185
 C        -2.664692         1.254601         0.952740
 C        -2.584399         0.989888         2.457967
 C        -1.544621         2.107158         2.666253
 C        -1.219330         1.836519         1.193627
 O        -2.111358        -0.270935         2.787805
 C        -0.772439        -0.473470         2.157969
 H         1.115032         0.598736         0.528475
 H        -1.981290         0.364029        -0.973897
 H        -2.568612        -0.957731         0.241199
 H        -3.407368         1.828659         0.478848
 H        -3.635608         0.995897         2.905431
 H        -2.039641         3.098202         2.802779
 H        -0.732237         2.065631         3.365882
 H        -0.993021         2.534333         0.402042
 H        -0.080611        -0.198805         2.951984
 H        -0.877833        -1.522291         1.672636
