19
Iteration:  3743charge 0 multiplicity 1
 O         0.471949         0.192866         0.342047
 C        -0.855371         0.366155         0.859970
 C        -2.222120         0.111704         0.118199
 C        -2.714034         1.302302         0.846487
 C        -2.571793         0.936051         2.499723
 C        -1.478109         2.100157         2.585924
 C        -1.303718         1.941144         1.089549
 O        -2.062917        -0.372228         2.732820
 C        -0.796834        -0.516373         2.127271
 H         0.533167         0.624072        -0.541197
 H        -2.276873         0.430431        -0.900743
 H        -2.665379        -0.866561         0.434660
 H        -3.639200         1.846943         0.738090
 H        -3.426317         0.992433         3.135790
 H        -1.851367         3.125323         2.660055
 H        -0.560317         2.002454         3.199062
 H        -0.758835         2.480797         0.310195
 H         0.037718        -0.313008         2.970442
 H        -0.530372        -1.463544         1.837469
