19
Iteration:  2720
 O         0.414063         0.080147         0.057896
 C        -0.708426         0.309795         0.839373
 C        -2.084933         0.273872         0.046184
 C        -2.552771         1.336923         0.981141
 C        -2.761137         0.957764         2.511880
 C        -1.630514         2.068777         2.759323
 C        -1.146800         1.809991         1.309144
 O        -2.105656        -0.277365         2.771444
 C        -0.827132        -0.530114         2.024882
 H         0.188371         0.247018        -0.878670
 H        -1.836599         0.566971        -0.982886
 H        -2.809983        -0.553720         0.057673
 H        -3.293995         2.064503         0.731904
 H        -3.754202         0.996122         2.960833
 H        -2.222635         3.065914         2.566481
 H        -1.244289         2.076584         3.819927
 H        -0.537585         2.568423         0.757866
 H        -0.126699        -0.097076         2.717639
 H        -0.646757        -1.623560         1.881682
