19
Iteration:   479charge 0 multiplicity 1
 O         0.463321         0.243983         0.255116
 C        -0.809972         0.341056         0.832282
 C        -2.169478         0.170092         0.053434
 C        -2.579793         1.415932         0.957403
 C        -2.632867         1.008106         2.506180
 C        -1.488109         2.060322         2.724217
 C        -1.180699         1.899096         1.240689
 O        -2.186310        -0.391793         2.666961
 C        -0.896309        -0.596922         1.976604
 H         0.647210        -0.700065         0.135776
 H        -2.040398         0.570685        -1.049270
 H        -2.750117        -0.747343         0.043346
 H        -3.352576         2.190161         0.545204
 H        -3.424040         1.000654         3.229160
 H        -1.809739         3.001127         3.187512
 H        -0.810473         1.752699         3.442824
 H        -0.688570         2.743748         0.627365
 H         0.010883        -0.523362         2.678207
 H        -1.025858        -1.603547         1.478487
