19
Iteration:  1229charge 0 multiplicity 1
 O         0.473383         0.169972         0.070792
 C        -0.769246         0.315662         0.854340
 C        -2.156600         0.180255         0.109653
 C        -2.589564         1.340918         0.940538
 C        -2.659264         1.017571         2.499306
 C        -1.458028         2.104291         2.726954
 C        -1.140001         1.851768         1.274285
 O        -2.250188        -0.447388         2.639717
 C        -0.884726        -0.508296         2.135799
 H         0.597797         0.975660        -0.452490
 H        -2.192821         0.464509        -0.898375
 H        -2.652264        -0.793734         0.367617
 H        -3.442535         2.074497         0.666381
 H        -3.591086         1.050300         3.056504
 H        -1.940582         3.065765         2.916302
 H        -0.712815         1.968405         3.520829
 H        -0.519236         2.444742         0.630185
 H        -0.302625         0.060662         2.838558
 H        -0.822495        -1.622235         2.051573
