19
Iteration:  4893
 O         0.349508         0.195811         0.065081
 C        -0.796847         0.340325         0.823382
 C        -2.121156         0.141116         0.017043
 C        -2.675354         1.208981         0.860354
 C        -2.612670         1.046502         2.569060
 C        -1.591000         2.140754         2.646779
 C        -1.250868         1.791931         1.171229
 O        -2.030474        -0.284439         2.858409
 C        -0.779603        -0.526002         2.175069
 H         1.057715        -0.180997         0.597700
 H        -1.990631         0.549354        -0.972571
 H        -2.354749        -0.928409        -0.264453
 H        -3.381716         1.911211         0.656966
 H        -3.505626         1.205858         3.143832
 H        -2.227120         3.046033         2.731209
 H        -0.940231         2.158728         3.500999
 H        -0.879928         2.601938         0.540155
 H         0.066770        -0.140817         2.770606
 H        -0.917874        -1.641623         1.924126
