19
Iteration:   952
 O         0.392343         0.050437         0.062670
 C        -0.763015         0.327299         0.853005
 C        -2.114323         0.292953         0.029279
 C        -2.627820         1.378490         0.962106
 C        -2.682075         0.992097         2.524264
 C        -1.600198         1.980552         2.798737
 C        -1.128914         1.843366         1.279022
 O        -2.133997        -0.306632         2.693055
 C        -0.850573        -0.520146         2.019198
 H         0.978650         0.812806         0.201449
 H        -1.815665         0.802997        -0.965667
 H        -2.505432        -0.635584        -0.332167
 H        -3.609404         1.934052         0.661724
 H        -3.673981         1.014004         3.089531
 H        -1.792226         3.092830         3.061988
 H        -0.979217         1.728485         3.715196
 H        -0.534500         2.602079         0.795981
 H        -0.111984        -0.285446         2.895275
 H        -0.788188        -1.624439         1.752888
