19
Iteration:  2832
 O         0.368159         0.113051         0.121804
 C        -0.797369         0.361569         0.825604
 C        -2.010406         0.267639         0.045552
 C        -2.634778         1.334575         0.948024
 C        -2.632328         0.973335         2.460500
 C        -1.524243         2.033602         2.690221
 C        -1.212683         1.831108         1.258382
 O        -2.129709        -0.354840         2.855856
 C        -0.900977        -0.538721         2.025728
 H         0.577599         0.904213        -0.432288
 H        -1.876516         0.572676        -0.975665
 H        -2.416691        -0.682209        -0.188448
 H        -3.444459         2.096863         0.654789
 H        -3.568490         1.129847         3.016697
 H        -1.978326         3.058789         3.017565
 H        -0.872231         1.818957         3.584487
 H        -0.504330         2.655845         0.859671
 H        -0.110034        -0.358830         2.693461
 H        -0.967691        -1.607659         1.644545
