19
Iteration:  1457charge 0 multiplicity 1
 O         0.427177         0.194780         0.140259
 C        -0.797475         0.366565         0.844440
 C        -2.097073         0.162506         0.066130
 C        -2.578585         1.371324         0.920193
 C        -2.629399         0.944341         2.466009
 C        -1.505174         2.046958         2.677050
 C        -1.167931         1.840229         1.262744
 O        -2.199138        -0.347901         2.758180
 C        -0.882004        -0.524327         2.139455
 H         0.207253         0.405264        -0.770934
 H        -1.949087         0.555934        -0.960160
 H        -2.460739        -0.879811         0.160468
 H        -3.451952         2.061040         0.497320
 H        -3.513433         1.094963         3.111081
 H        -2.168068         2.891611         2.758654
 H        -0.739146         1.718484         3.398876
 H        -0.710782         2.675249         0.658545
 H        -0.101487        -0.122186         2.830811
 H        -0.765578        -1.558003         1.993767
