19
Iteration:    58charge 0 multiplicity 1
 O         0.454304         0.212485         0.256592
 C        -0.799945         0.348486         0.888046
 C        -2.138212         0.297678        -0.027354
 C        -2.660313         1.403771         0.958939
 C        -2.579386         0.979592         2.571648
 C        -1.414423         2.107015         2.767323
 C        -1.167943         1.858491         1.272831
 O        -2.249692        -0.461722         2.618334
 C        -0.884732        -0.707897         1.977728
 H         0.415193         0.674375        -0.631210
 H        -1.823059         0.731993        -0.869674
 H        -2.697795        -0.619924        -0.332728
 H        -3.437198         2.213524         0.627412
 H        -3.512109         1.119160         3.216107
 H        -1.893973         3.038246         2.930562
 H        -0.666782         1.958280         3.545908
 H        -0.680965         2.619633         0.699504
 H        -0.277904        -0.580313         2.800235
 H        -0.857739        -1.734580         1.670632
