19
Iteration:  2707
 O         0.475279         0.115515         0.113769
 C        -0.800228         0.306315         0.780794
 C        -2.156292         0.230400         0.071888
 C        -2.594377         1.409979         0.947434
 C        -2.648721         0.936061         2.438309
 C        -1.667373         2.169081         2.768659
 C        -1.114309         1.832586         1.323923
 O        -2.097285        -0.344575         2.766712
 C        -0.853466        -0.568768         2.095056
 H         0.283202         0.246148        -0.829025
 H        -2.126704         0.705271        -0.935672
 H        -2.612870        -0.803355         0.204692
 H        -3.358298         2.043743         0.555045
 H        -3.679309         0.835430         2.848642
 H        -2.139107         3.183569         2.808217
 H        -0.826453         2.037027         3.498377
 H        -0.629528         2.604543         0.740188
 H         0.091737        -0.533870         2.671245
 H        -0.925315        -1.558196         1.805477
