19
Iteration:  2345
 O         0.441196         0.014951         0.217532
 C        -0.836016         0.366523         0.812059
 C        -2.131096         0.232149         0.017318
 C        -2.683141         1.373099         0.950214
 C        -2.615057         0.939268         2.486920
 C        -1.543465         2.125072         2.783958
 C        -1.174035         1.945699         1.203123
 O        -2.142610        -0.334424         2.737196
 C        -0.802820        -0.533541         2.084222
 H         0.538948         0.226591        -0.718196
 H        -1.887109         0.620030        -1.000392
 H        -2.582824        -0.763580         0.066501
 H        -3.511927         2.020417         0.630628
 H        -3.687265         0.814687         2.901197
 H        -2.044256         3.013759         3.064695
 H        -0.695061         1.869323         3.465113
 H        -0.659105         2.641602         0.514630
 H         0.081555        -0.223506         2.703706
 H        -0.800657        -1.604149         1.612321
