19
Iteration:  3501charge 0 multiplicity 1
 O         0.557784         0.201036         0.251942
 C        -0.856157         0.344957         0.740412
 C        -2.178173         0.169959         0.016815
 C        -2.669825         1.279911         0.920039
 C        -2.639246         0.995743         2.528321
 C        -1.528537         2.102196         2.694287
 C        -1.263701         1.766461         1.168324
 O        -2.073837        -0.305791         2.800448
 C        -0.851819        -0.495599         2.095709
 H         0.426368        -0.477408        -0.440882
 H        -2.106844         0.676292        -0.989394
 H        -2.775861        -0.726072        -0.020859
 H        -3.438468         1.942697         0.456157
 H        -3.665151         1.087947         3.075682
 H        -2.011980         3.157529         2.858347
 H        -0.771939         1.989367         3.573560
 H        -0.742101         2.552414         0.511865
 H        -0.090002         0.022846         2.732832
 H        -0.609041        -1.626923         2.004958
