19
Iteration:  3375charge 0 multiplicity 1
 O         0.408078         0.224629         0.220455
 C        -0.772966         0.373740         0.891495
 C        -2.072875         0.223806         0.115292
 C        -2.619542         1.303384         0.950554
 C        -2.608446         0.985927         2.512296
 C        -1.591611         2.116930         2.651699
 C        -1.175283         1.858713         1.158625
 O        -2.144293        -0.344526         2.743091
 C        -0.873266        -0.628029         2.054979
 H         0.257957        -0.171420        -0.651211
 H        -1.960077         0.519893        -0.961497
 H        -2.388090        -0.944568        -0.033719
 H        -3.429612         1.971494         0.593868
 H        -3.556472         1.116617         3.006615
 H        -2.109429         3.103694         2.832494
 H        -0.760941         1.893803         3.411913
 H        -0.624700         2.630523         0.628825
 H         0.083783        -0.556784         2.604672
 H        -1.061398        -1.568354         1.702528
