19
Iteration:  4278
 O         0.529475         0.082404         0.217277
 C        -0.752028         0.332645         0.733437
 C        -2.198574         0.061533         0.016510
 C        -2.750045         1.206306         1.051642
 C        -2.646935         1.000904         2.605696
 C        -1.507322         2.121693         2.601283
 C        -1.331838         1.862218         1.103620
 O        -2.058275        -0.304449         2.775269
 C        -0.792012        -0.388127         2.129455
 H         0.591716         0.685268        -0.563241
 H        -2.291581         0.402670        -1.043903
 H        -2.602625        -1.017487         0.003445
 H        -3.529503         1.951125         0.750378
 H        -3.511402         1.293256         3.212313
 H        -1.897162         3.196880         2.655376
 H        -0.674571         2.155107         3.436546
 H        -1.116493         2.824698         0.473149
 H        -0.094882        -0.007679         2.872194
 H        -0.559887        -1.423045         1.989644
