19
Iteration:   626
 O         0.443723         0.199360         0.174405
 C        -0.799541         0.285662         0.828517
 C        -2.154710         0.209977         0.088682
 C        -2.615841         1.422947         0.914563
 C        -2.606418         0.957381         2.455890
 C        -1.408456         2.027439         2.775998
 C        -1.099225         1.936045         1.264529
 O        -2.254500        -0.414775         2.631825
 C        -0.948658        -0.572732         2.099357
 H         0.645507         1.098658        -0.106908
 H        -2.143670         0.451168        -0.942816
 H        -2.811577        -0.711522         0.095152
 H        -3.531596         1.927504         0.557467
 H        -3.608183         1.112998         3.042910
 H        -1.906978         2.966037         2.905024
 H        -0.580153         1.711158         3.465968
 H        -0.453157         2.637786         0.738555
 H        -0.133911        -0.395338         2.858361
 H        -0.808563        -1.671626         1.914515
