19
Iteration:   265
 O         0.444814         0.146906         0.133782
 C        -0.744055         0.375210         0.797937
 C        -2.105945         0.252170         0.039851
 C        -2.593234         1.391946         0.921395
 C        -2.700839         1.003396         2.410680
 C        -1.496013         1.931542         2.822728
 C        -1.117609         1.884811         1.383870
 O        -2.224050        -0.374951         2.678436
 C        -0.911357        -0.502103         2.061289
 H         0.416223         0.375667        -0.793673
 H        -2.241920         0.444553        -1.017511
 H        -2.636090        -0.827072         0.208308
 H        -3.408562         1.960847         0.718944
 H        -3.783434         0.987897         2.760489
 H        -1.610234         2.883326         3.291840
 H        -0.699248         1.515373         3.503036
 H        -0.487419         2.678892         1.040885
 H        -0.137752        -0.000758         2.723969
 H        -0.813119        -1.528559         1.875205
