19
Iteration:  3363
 O         0.514147         0.284264         0.141795
 C        -0.769016         0.346249         0.831667
 C        -2.057155         0.193922        -0.006482
 C        -2.664589         1.328313         0.942678
 C        -2.640325         1.018641         2.507769
 C        -1.530479         2.080278         2.675082
 C        -1.219071         1.808791         1.236056
 O        -2.130037        -0.326189         2.806202
 C        -0.952055        -0.633602         2.104030
 H         0.411402        -0.462217        -0.488882
 H        -1.996669         0.718304        -0.987547
 H        -2.696634        -0.848735         0.082202
 H        -3.496746         1.977686         0.551153
 H        -3.502849         1.046390         3.196181
 H        -2.014178         3.094631         2.770466
 H        -0.869357         2.009993         3.614886
 H        -0.824200         2.501782         0.491089
 H        -0.171814        -0.547852         2.871818
 H        -0.883449        -1.637913         1.805907
