19
Iteration:  3657charge 0 multiplicity 1
 O         0.387919         0.190914         0.149042
 C        -0.808374         0.347911         0.875779
 C        -2.186635         0.091533         0.129654
 C        -2.666867         1.331522         0.910178
 C        -2.613669         1.006420         2.441994
 C        -1.594968         2.098893         2.665206
 C        -1.227250         1.839859         1.204131
 O        -2.054046        -0.313542         2.703099
 C        -0.756639        -0.471286         2.079876
 H         1.108651        -0.179124         0.666504
 H        -2.205775         0.055083        -0.898563
 H        -2.688537        -0.887805         0.274494
 H        -3.586110         1.960595         0.820504
 H        -3.539960         1.075205         2.924565
 H        -1.989896         3.155186         2.569865
 H        -0.884777         1.999067         3.560379
 H        -0.614462         2.462980         0.580026
 H        -0.018463        -0.120946         2.772635
 H        -0.569001        -1.605706         1.967532
