19
Iteration:  1918charge 0 multiplicity 1
 O         0.373479        -0.015439         0.111730
 C        -0.770850         0.363400         0.875278
 C        -2.101147         0.253849         0.098929
 C        -2.642617         1.398024         0.970257
 C        -2.658043         0.921971         2.462440
 C        -1.570440         2.070836         2.773509
 C        -1.164078         1.921166         1.247259
 O        -2.112455        -0.418922         2.603625
 C        -0.828058        -0.406974         2.155383
 H         0.733963         0.636553        -0.534988
 H        -2.046580         0.463344        -0.974964
 H        -2.622326        -0.756378         0.201911
 H        -3.481756         2.094413         0.610543
 H        -3.678415         0.985470         2.994375
 H        -1.996702         3.120223         2.927368
 H        -0.652215         1.933962         3.368168
 H        -0.603013         2.652786         0.703589
 H        -0.217660        -0.095715         2.961076
 H        -0.687292        -1.477610         1.860468
