19
Iteration:  3347charge 0 multiplicity 1
 O         0.571083         0.307676         0.077318
 C        -0.806481         0.288481         0.808192
 C        -2.175834         0.209014        -0.021180
 C        -2.651283         1.280319         0.954271
 C        -2.694125         0.960492         2.549059
 C        -1.508755         2.056768         2.745598
 C        -1.182930         1.762089         1.200040
 O        -2.214436        -0.286545         2.838554
 C        -0.874951        -0.506291         2.093991
 H         0.927123        -0.596284         0.077762
 H        -1.907578         0.558158        -1.014465
 H        -2.562356        -0.721318        -0.204882
 H        -3.432989         1.978086         0.722822
 H        -3.710862         1.209131         2.903646
 H        -1.930997         3.047342         2.815965
 H        -0.697313         1.773063         3.359751
 H        -0.587214         2.594480         0.795645
 H         0.090045        -0.251728         2.561731
 H        -1.061555        -1.646845         1.932471
