19
Iteration:  3905charge 0 multiplicity 1
 O         0.500148         0.340402         0.174718
 C        -0.757569         0.296886         0.835412
 C        -2.196554         0.012758         0.101595
 C        -2.717319         1.235016         0.948112
 C        -2.600169         1.062200         2.533995
 C        -1.588849         2.169196         2.606815
 C        -1.222628         1.819220         1.128427
 O        -2.071870        -0.289179         2.829924
 C        -0.833323        -0.569634         2.094993
 H         0.476174        -0.479219        -0.337340
 H        -2.147882         0.530249        -0.865277
 H        -2.471741        -1.005610         0.164809
 H        -3.525995         1.907235         0.719504
 H        -3.590532         1.043239         3.002612
 H        -2.025701         3.145789         2.566213
 H        -0.910501         2.236703         3.427049
 H        -0.682298         2.543869         0.439996
 H         0.084065        -0.443762         2.643052
 H        -0.953542        -1.711427         1.741448
