19
Iteration:  4739
 O         0.350396         0.268213         0.197024
 C        -0.879723         0.373520         0.868610
 C        -2.080856         0.083984         0.033169
 C        -2.723348         1.218799         0.938837
 C        -2.574496         0.963608         2.548544
 C        -1.527377         2.153119         2.568569
 C        -1.260562         1.848037         1.039586
 O        -2.044760        -0.312874         2.883643
 C        -0.788029        -0.497480         2.096401
 H         0.973963        -0.319470         0.695865
 H        -1.922349         0.639753        -0.874810
 H        -2.620810        -0.951271        -0.055449
 H        -3.534104         1.787401         0.651608
 H        -3.487493         1.027422         3.072496
 H        -1.979792         3.146134         2.625482
 H        -0.737046         2.001418         3.305809
 H        -0.759676         2.547759         0.355511
 H         0.039011        -0.392071         2.795925
 H        -0.750289        -1.603430         1.577398
