19
Iteration:  4366
 O         0.333483         0.094251         0.056441
 C        -0.738186         0.387008         0.877947
 C        -2.112609         0.116613         0.156773
 C        -2.709247         1.228835         0.943909
 C        -2.604419         0.974075         2.510098
 C        -1.599346         2.168739         2.629256
 C        -1.299287         1.846291         1.087863
 O        -2.061248        -0.325561         2.715729
 C        -0.713302        -0.357831         2.218293
 H         0.878381        -0.606422         0.460476
 H        -1.927622         0.419799        -0.871126
 H        -2.616165        -0.915030         0.149282
 H        -3.535729         1.830934         0.526599
 H        -3.484012         0.990140         3.188460
 H        -2.261820         2.990820         2.971559
 H        -0.740747         1.966732         3.349153
 H        -0.799296         2.647292         0.431451
 H        -0.092890         0.215716         2.953159
 H        -0.359557        -1.316849         1.950328
