19
Iteration:  4884charge 0 multiplicity 1
 O         0.373858         0.226856         0.059175
 C        -0.780269         0.381508         0.909881
 C        -2.094467         0.091041        -0.000016
 C        -2.693910         1.266381         0.934182
 C        -2.580183         0.958238         2.477241
 C        -1.592250         2.096195         2.598121
 C        -1.295992         1.804154         1.140542
 O        -2.010636        -0.239207         2.928449
 C        -0.859519        -0.534931         2.133306
 H         1.100499        -0.041595         0.638404
 H        -1.850344         0.625743        -0.938754
 H        -2.730772        -0.811377        -0.006332
 H        -3.446778         1.950962         0.535550
 H        -3.505576         1.119885         3.137460
 H        -2.079659         3.099675         2.582674
 H        -0.827380         2.112859         3.349908
 H        -0.757115         2.538630         0.561847
 H         0.072302        -0.594573         2.783638
 H        -0.926658        -1.664243         1.796196
