19
Iteration:  1366
 O         0.432122         0.129493         0.073461
 C        -0.733645         0.336566         0.845742
 C        -2.148569         0.125654         0.082272
 C        -2.651385         1.329708         0.899781
 C        -2.645117         1.012937         2.489427
 C        -1.557558         2.033280         2.779141
 C        -1.135095         1.837505         1.258392
 O        -2.195548        -0.309988         2.653140
 C        -0.829219        -0.483669         2.193427
 H         0.557004         0.903937        -0.501061
 H        -2.033165         0.474865        -0.923856
 H        -2.576127        -0.820287         0.106411
 H        -3.448011         1.945015         0.574600
 H        -3.511800         1.254624         3.098917
 H        -1.794249         3.076120         2.988322
 H        -0.880945         1.586263         3.513295
 H        -0.825660         2.595018         0.639996
 H        -0.058417        -0.047693         2.873343
 H        -0.705361        -1.504763         1.984611
