19
Iteration:  2951
 O         0.464394         0.148939         0.332309
 C        -0.837152         0.293652         0.748185
 C        -2.150361         0.273978         0.011387
 C        -2.665595         1.350543         0.941240
 C        -2.567495         0.964485         2.508270
 C        -1.509515         2.131338         2.710210
 C        -1.205802         1.934123         1.200184
 O        -2.055631        -0.369038         2.786074
 C        -0.957372        -0.682050         1.952602
 H         0.814496         1.012791         0.108608
 H        -2.219057         0.410706        -1.108287
 H        -2.745025        -0.695395         0.083529
 H        -3.599012         1.942263         0.707826
 H        -3.494747         0.960474         3.107868
 H        -1.996521         3.140646         2.816045
 H        -0.831596         1.999527         3.538822
 H        -0.629518         2.585223         0.479658
 H         0.107831        -0.458019         2.471209
 H        -1.120535        -1.689297         1.603716
