19
Iteration:  3393
 O         0.442869         0.072577         0.242615
 C        -0.748897         0.422802         0.838057
 C        -2.134264         0.155660         0.102105
 C        -2.658652         1.380124         0.894544
 C        -2.645067         0.941231         2.435357
 C        -1.492500         2.157147         2.719584
 C        -1.231656         1.894734         1.245374
 O        -2.088895        -0.376112         2.693863
 C        -0.865271        -0.535724         2.077347
 H         0.250281         0.474216        -0.615422
 H        -2.068634         0.406473        -0.964286
 H        -2.680274        -0.771945         0.226872
 H        -3.620249         1.882469         0.642366
 H        -3.551716         1.133039         3.074403
 H        -2.165491         2.992128         2.790257
 H        -0.835632         1.881512         3.526787
 H        -0.768594         2.709443         0.634693
 H        -0.100731        -0.348591         2.844864
 H        -0.696946        -1.611684         1.672609
