19
Iteration:  1655charge 0 multiplicity 1
 O         0.426496         0.078117         0.179062
 C        -0.741657         0.418633         0.852949
 C        -2.137524         0.221554         0.018778
 C        -2.649142         1.356485         0.903944
 C        -2.615304         0.968391         2.448439
 C        -1.585656         2.039232         2.746285
 C        -1.193478         1.871473         1.249207
 O        -2.073871        -0.277867         2.754275
 C        -0.874525        -0.578639         2.096602
 H         0.357191         0.369455        -0.763382
 H        -1.964166         0.448971        -1.008390
 H        -2.633357        -0.766397         0.005970
 H        -3.521816         1.991434         0.661077
 H        -3.558564         0.975192         2.921542
 H        -2.106897         2.951636         3.089589
 H        -0.845667         1.925087         3.582059
 H        -0.710830         2.665349         0.684577
 H        -0.049003        -0.447815         2.842637
 H        -0.933497        -1.597123         1.821592
