19
Iteration:  1835
 O         0.538671         0.266818         0.313402
 C        -0.787735         0.370023         0.785371
 C        -2.121453         0.223082         0.065564
 C        -2.733402         1.287106         1.061065
 C        -2.603984         1.033231         2.513541
 C        -1.374843         2.080406         2.663200
 C        -1.243959         1.842016         1.170043
 O        -2.230704        -0.357189         2.723290
 C        -0.964026        -0.628129         1.989140
 H         0.605908         0.074474        -0.620949
 H        -2.025416         0.531444        -0.990701
 H        -2.556241        -0.762276         0.190349
 H        -3.597901         1.776800         0.744027
 H        -3.377864         1.190903         3.224033
 H        -1.560000         3.135902         2.786723
 H        -0.575344         1.846784         3.332717
 H        -0.821877         2.283352         0.199649
 H        -0.147196        -0.630561         2.579024
 H        -0.819079        -1.602000         1.565429
