19
Iteration:  1600charge 0 multiplicity 1
 O         0.416965         0.029637         0.164343
 C        -0.756378         0.342297         0.822183
 C        -2.102140         0.182836         0.153617
 C        -2.599390         1.385108         0.991163
 C        -2.679184         1.014561         2.512171
 C        -1.526235         2.037512         2.700902
 C        -1.225298         1.916445         1.209930
 O        -2.174219        -0.378462         2.613774
 C        -0.822665        -0.454294         2.081324
 H         0.610222         0.695394        -0.541627
 H        -1.901599         0.552572        -0.829919
 H        -2.601260        -0.772182         0.190652
 H        -3.517658         1.857785         0.634340
 H        -3.600037         1.035454         3.008081
 H        -2.018590         3.025341         2.929345
 H        -0.701672         1.711491         3.477404
 H        -0.797380         2.732228         0.632350
 H        -0.119322         0.004043         2.908163
 H        -0.599890        -1.477353         2.044300
