19
Iteration:   763charge 0 multiplicity 1
 O         0.403032         0.290583         0.158416
 C        -0.788575         0.313279         0.879485
 C        -2.140955         0.279297         0.055661
 C        -2.609118         1.424929         0.978360
 C        -2.624910         0.974401         2.465857
 C        -1.412073         1.963658         2.759227
 C        -1.196169         1.833575         1.232800
 O        -2.228483        -0.379571         2.569696
 C        -0.908005        -0.598361         2.112991
 H         0.834666        -0.587310         0.336809
 H        -1.884086         0.671527        -0.940124
 H        -2.800487        -0.526137        -0.195093
 H        -3.221328         2.262082         0.657138
 H        -3.478619         0.942804         3.027206
 H        -1.735163         3.002496         3.133052
 H        -0.608571         1.733666         3.532132
 H        -0.675913         2.617161         0.639822
 H        -0.188061        -0.431171         2.975659
 H        -0.782274        -1.660203         1.924276
