19
Iteration:   477charge 0 multiplicity 1
 O         0.470910         0.240695         0.263665
 C        -0.813290         0.323707         0.830062
 C        -2.178079         0.190005         0.050614
 C        -2.599708         1.402622         0.957360
 C        -2.615778         1.014753         2.509515
 C        -1.494586         2.079392         2.717565
 C        -1.190059         1.891881         1.244620
 O        -2.188543        -0.389057         2.665251
 C        -0.897383        -0.620806         1.967979
 H         0.729788        -0.685030         0.181111
 H        -1.997749         0.653791        -1.035850
 H        -2.756161        -0.785402        -0.006142
 H        -3.316482         2.125145         0.565349
 H        -3.356228         1.040825         3.238273
 H        -1.822467         3.040556         3.212797
 H        -0.739557         1.779011         3.470335
 H        -0.697923         2.747883         0.660281
 H         0.003382        -0.453479         2.614879
 H        -0.998093        -1.577617         1.465040
