19
Iteration:  1906
 O         0.378977        -0.080061         0.070288
 C        -0.723512         0.368202         0.829552
 C        -2.087079         0.260947         0.081401
 C        -2.688864         1.358868         0.900496
 C        -2.636878         0.995873         2.531074
 C        -1.593429         2.060584         2.848123
 C        -1.163521         1.897195         1.257540
 O        -2.184126        -0.323379         2.613364
 C        -0.753198        -0.450058         2.112334
 H         0.456949         0.728259        -0.453652
 H        -1.858033         0.612669        -0.949460
 H        -2.453764        -0.823593         0.100812
 H        -3.631477         1.999805         0.610077
 H        -3.647251         0.843764         3.109959
 H        -2.118638         3.015841         3.086059
 H        -1.077084         1.804245         3.809758
 H        -0.586296         2.674070         0.782889
 H        -0.032037         0.072891         2.627335
 H        -0.311565        -1.496377         2.165548
