19
Iteration:  3067
 O         0.538713         0.257287         0.183944
 C        -0.797636         0.355483         0.789935
 C        -2.087943         0.254883        -0.042970
 C        -2.732002         1.279461         1.017188
 C        -2.607140         0.994099         2.548059
 C        -1.527117         2.055111         2.652701
 C        -1.198484         1.808032         1.225058
 O        -2.171763        -0.359679         2.797615
 C        -0.942019        -0.553507         2.017127
 H         0.880520        -0.648823         0.191969
 H        -2.116497         0.835430        -0.943342
 H        -2.478546        -0.721472        -0.278219
 H        -3.375796         2.123216         0.732445
 H        -3.448760         1.212714         3.231191
 H        -1.969494         3.027572         2.862445
 H        -0.762015         1.802634         3.463974
 H        -0.703797         2.555752         0.623897
 H        -0.073530        -0.262694         2.652659
 H        -1.013380        -1.719824         1.834905
