19
Iteration:  4946charge 0 multiplicity 1
 O         0.307174         0.096184         0.092887
 C        -0.790545         0.403975         0.869204
 C        -2.078661         0.075047         0.206043
 C        -2.674281         1.324230         0.869004
 C        -2.655427         0.964043         2.473785
 C        -1.537235         2.122951         2.660095
 C        -1.288590         1.932927         1.148115
 O        -2.049171        -0.367115         2.705566
 C        -0.788719        -0.419083         2.118159
 H         1.136144         0.192292         0.576544
 H        -2.004251         0.085218        -0.859920
 H        -2.586276        -0.932909         0.434447
 H        -3.635282         1.863047         0.642336
 H        -3.503953         1.056297         3.053184
 H        -1.941596         3.107191         2.940620
 H        -0.727200         1.813311         3.353188
 H        -0.583982         2.681800         0.725522
 H         0.052595        -0.020085         2.751640
 H        -0.478102        -1.475036         2.024719
