19
Iteration:   955
 O         0.400265         0.064201         0.064990
 C        -0.805513         0.340633         0.862161
 C        -2.093424         0.284730         0.014307
 C        -2.629226         1.372133         0.956330
 C        -2.679410         1.006413         2.516834
 C        -1.566827         1.969005         2.803362
 C        -1.142522         1.853105         1.295431
 O        -2.126277        -0.301560         2.675553
 C        -0.856039        -0.526187         2.034420
 H         1.045140         0.755829         0.245037
 H        -1.872637         0.680209        -0.926399
 H        -2.575227        -0.698205        -0.233668
 H        -3.563659         1.950747         0.659034
 H        -3.625191         1.050703         3.104400
 H        -1.840740         2.945769         3.028482
 H        -0.934347         1.657974         3.602622
 H        -0.637185         2.630813         0.795358
 H        -0.197885        -0.299292         2.836264
 H        -0.806476        -1.593987         1.800708
