19
Iteration:  2685
 O         0.434253         0.158768         0.288284
 C        -0.767854         0.351139         0.857619
 C        -2.106707         0.198031         0.088268
 C        -2.687129         1.366679         0.930539
 C        -2.602276         0.969855         2.530273
 C        -1.445946         2.058283         2.664733
 C        -1.217881         1.874650         1.187276
 O        -2.153518        -0.324434         2.711824
 C        -0.876174        -0.566551         1.989283
 H         0.325967         0.555044        -0.602016
 H        -1.989159         0.481645        -1.005981
 H        -2.792319        -0.693219         0.246719
 H        -3.536612         1.865255         0.496297
 H        -3.557236         0.941137         3.117431
 H        -1.991423         3.006698         2.965386
 H        -0.676467         1.834612         3.499344
 H        -0.820805         2.670247         0.548404
 H        -0.017601        -0.595265         2.721040
 H        -0.881813        -1.554632         1.603589
