19
Iteration:  2878charge 0 multiplicity 1
 O         0.407966        -0.011437         0.213873
 C        -0.809607         0.438840         0.811791
 C        -2.130303         0.289645         0.145604
 C        -2.643073         1.480696         0.974394
 C        -2.659729         0.927733         2.518754
 C        -1.583074         1.976713         2.769644
 C        -1.115372         1.922531         1.208912
 O        -2.131930        -0.430844         2.549131
 C        -0.782838        -0.446105         2.099986
 H         0.431271         0.116328        -0.758725
 H        -2.292122         0.476646        -0.902156
 H        -2.532486        -0.705318         0.192333
 H        -3.533791         2.038348         0.563813
 H        -3.636969         0.857926         3.013511
 H        -2.071021         2.953711         3.078211
 H        -0.726165         1.895800         3.512968
 H        -0.717756         2.670812         0.464289
 H        -0.192358         0.127206         2.742858
 H        -0.352791        -1.556394         2.097225
