19
Iteration:   208charge 0 multiplicity 1
 O         0.423988         0.227523         0.207874
 C        -0.798396         0.355473         0.867100
 C        -2.120011         0.342406        -0.114543
 C        -2.633357         1.402349         0.931767
 C        -2.586962         0.951701         2.539105
 C        -1.495394         2.018444         2.816102
 C        -1.131561         1.835216         1.239255
 O        -2.180807        -0.427676         2.711523
 C        -0.938385        -0.590371         2.050830
 H         0.414771        -0.603632        -0.328202
 H        -1.826598         1.028950        -0.969832
 H        -2.675679        -0.582444        -0.404515
 H        -3.367904         2.117784         0.793251
 H        -3.524612         1.026221         3.087143
 H        -2.092489         2.950944         2.868740
 H        -0.746045         1.898228         3.648014
 H        -0.631627         2.605047         0.695899
 H        -0.079529        -0.483398         2.731769
 H        -0.810460        -1.651065         1.776458
