19
Iteration:  3781charge 0 multiplicity 1
 O         0.436660         0.177599         0.015182
 C        -0.691827         0.345198         0.809397
 C        -2.078744         0.113293         0.078182
 C        -2.691657         1.205389         0.965002
 C        -2.681350         1.039948         2.557973
 C        -1.567433         2.081102         2.682121
 C        -1.269732         1.733479         1.122108
 O        -2.114832        -0.222598         2.829567
 C        -0.835771        -0.477417         2.142214
 H         1.043199         0.850740         0.368847
 H        -2.136095         0.444971        -1.003735
 H        -2.600396        -0.842247         0.118298
 H        -3.582083         1.604493         0.429445
 H        -3.658506         1.047112         3.133533
 H        -1.851235         3.185698         2.702963
 H        -0.819040         1.956456         3.507619
 H        -0.758372         2.614421         0.766843
 H        -0.112917        -0.077236         2.837925
 H        -0.773173        -1.672880         1.895628
