19
Iteration:  4045
 O         0.445799         0.211987         0.206976
 C        -0.785923         0.361091         0.785740
 C        -2.127628         0.078802        -0.023032
 C        -2.760280         1.207903         0.963112
 C        -2.621375         0.980618         2.549117
 C        -1.449862         2.082746         2.627919
 C        -1.295763         1.842348         1.039883
 O        -2.079003        -0.296496         2.890512
 C        -0.829693        -0.422490         2.156484
 H         0.624514        -0.541574        -0.365949
 H        -1.962832         0.613571        -1.033401
 H        -2.568217        -0.893577        -0.073963
 H        -3.603524         1.866962         0.884899
 H        -3.559659         1.147955         3.118365
 H        -1.960880         3.090022         2.827804
 H        -0.638019         2.074270         3.429876
 H        -1.041703         2.684632         0.363300
 H         0.073787         0.105102         2.649908
 H        -0.682292        -1.481429         2.016360
