19
Iteration:   798charge 0 multiplicity 1
 O         0.404932         0.042233         0.087443
 C        -0.719034         0.472999         0.749851
 C        -2.088993         0.327402        -0.039018
 C        -2.550643         1.400594         0.998104
 C        -2.629103         0.913704         2.522972
 C        -1.621447         1.940605         2.846736
 C        -1.121393         1.894584         1.304931
 O        -2.141403        -0.356327         2.703083
 C        -0.951079        -0.513480         2.049014
 H         0.683680        -0.873813         0.324349
 H        -1.945748         1.065482        -0.914755
 H        -2.654140        -0.611260        -0.162032
 H        -3.226795         2.347413         0.715618
 H        -3.603489         1.064320         3.006487
 H        -2.264735         2.845176         2.789474
 H        -1.072033         1.774918         3.772853
 H        -0.844696         2.812643         0.792498
 H        -0.124620        -0.163968         2.670380
 H        -0.877200        -1.589759         1.722440
