19
Iteration:   212charge 0 multiplicity 1
 O         0.415769         0.208035         0.189806
 C        -0.793813         0.368376         0.890468
 C        -2.134908         0.360425        -0.117356
 C        -2.633553         1.374783         0.936083
 C        -2.578240         0.942578         2.521843
 C        -1.501056         2.057116         2.821778
 C        -1.122336         1.842431         1.275614
 O        -2.199834        -0.425313         2.670594
 C        -0.893563        -0.608097         2.076991
 H         0.399430        -0.558924        -0.390760
 H        -1.847129         0.970769        -0.905139
 H        -2.739778        -0.565206        -0.409640
 H        -3.517299         2.066980         0.718168
 H        -3.546604         1.016628         3.116221
 H        -1.996231         3.000437         2.934369
 H        -0.829703         1.978038         3.660032
 H        -0.547695         2.544953         0.615436
 H        -0.021188        -0.506583         2.802758
 H        -0.816743        -1.635474         1.790470
