19
Iteration:   933
 O         0.445762         0.001119         0.043980
 C        -0.826180         0.346313         0.822519
 C        -2.054095         0.426654        -0.028542
 C        -2.583770         1.377539         1.017126
 C        -2.701874         0.947092         2.475219
 C        -1.646282         2.102377         2.775147
 C        -1.125485         1.807376         1.350375
 O        -2.116639        -0.392960         2.772187
 C        -0.844907        -0.584197         2.066080
 H         0.786039         0.756199        -0.500410
 H        -1.965764         0.862772        -0.971711
 H        -2.674395        -0.477572        -0.202816
 H        -3.266238         2.255189         0.745433
 H        -3.703337         0.952234         2.980541
 H        -2.221729         2.957835         2.701869
 H        -1.019447         2.150390         3.628244
 H        -0.758339         2.611428         0.758550
 H        -0.075137        -0.345192         2.761840
 H        -0.870270        -1.660076         1.868542
