19
Iteration:  1057charge 0 multiplicity 1
 O         0.383222        -0.011101         0.075927
 C        -0.730596         0.356997         0.894528
 C        -2.033783         0.307936         0.008818
 C        -2.603425         1.361413         0.936951
 C        -2.703957         0.948062         2.483191
 C        -1.633128         2.087817         2.776451
 C        -1.230692         1.894944         1.275625
 O        -2.077280        -0.364446         2.770809
 C        -0.842673        -0.512202         2.053339
 H         0.394250         0.647497        -0.661095
 H        -1.745883         0.761104        -1.000767
 H        -2.552867        -0.687828         0.014700
 H        -3.274607         2.145986         0.714345
 H        -3.681973         0.986923         2.946293
 H        -1.999922         3.097242         2.965861
 H        -0.892347         1.807027         3.516994
 H        -0.768748         2.855638         0.724502
 H         0.001803        -0.480313         2.763640
 H        -0.932082        -1.588643         1.884502
