19
Iteration:   670
 O         0.510285        -0.041906         0.075500
 C        -0.774510         0.367750         0.807829
 C        -2.115779         0.383001        -0.015718
 C        -2.611588         1.412777         0.974156
 C        -2.632511         0.963608         2.483306
 C        -1.661517         2.025671         2.851017
 C        -1.125956         1.946056         1.295892
 O        -2.162394        -0.384730         2.693532
 C        -0.881427        -0.540403         2.115741
 H         0.383777         0.027521        -0.877493
 H        -2.002066         0.755096        -1.019341
 H        -2.646031        -0.618099        -0.219632
 H        -3.488376         2.031938         0.666566
 H        -3.661201         1.168468         3.036608
 H        -2.174840         2.950724         3.121604
 H        -1.045486         1.661035         3.726538
 H        -0.563677         2.780153         0.903189
 H        -0.061755        -0.143530         2.798961
 H        -0.560271        -1.610099         1.972567
