19
Iteration:  4379
 O         0.367541         0.094063         0.087700
 C        -0.852490         0.322616         0.885596
 C        -2.078442         0.125693         0.111361
 C        -2.776020         1.295175         0.915046
 C        -2.651255         1.015352         2.425868
 C        -1.557083         2.102909         2.606754
 C        -1.310112         1.949923         1.179256
 O        -1.967757        -0.424198         2.756953
 C        -0.715453        -0.311270         2.228001
 H         0.706799        -0.780824         0.366626
 H        -1.852027         0.404555        -0.913910
 H        -2.595317        -0.928448         0.228319
 H        -3.747670         1.697564         0.687438
 H        -3.607218         0.999798         2.952101
 H        -1.785036         3.235319         2.602756
 H        -0.701113         2.028843         3.386072
 H        -1.043841         2.736552         0.385272
 H         0.112559         0.122145         2.823229
 H        -0.491517        -1.352248         2.301936
