19
Iteration:   461
 O         0.522708         0.234921         0.270352
 C        -0.818878         0.318092         0.802580
 C        -2.130593         0.373353        -0.039576
 C        -2.739538         1.325895         1.026494
 C        -2.549210         0.992335         2.557531
 C        -1.436696         2.098170         2.708915
 C        -1.224767         1.806623         1.216398
 O        -2.150772        -0.363612         2.668836
 C        -0.965743        -0.656730         1.977507
 H         0.893831        -0.575695         0.634079
 H        -2.060998         0.880747        -0.934714
 H        -2.644882        -0.559081        -0.292626
 H        -3.672166         1.903126         0.821108
 H        -3.593247         1.066647         3.064707
 H        -1.952601         3.049446         2.677533
 H        -0.562561         2.069491         3.484073
 H        -0.704515         2.389268         0.509604
 H        -0.163402        -0.601395         2.716488
 H        -1.000607        -1.765300         1.854849
