19
Iteration:  3194charge 0 multiplicity 1
 O         0.554003         0.101144         0.275683
 C        -0.752187         0.393301         0.792036
 C        -2.140777         0.272074         0.055037
 C        -2.700152         1.329101         0.933503
 C        -2.628995         1.006969         2.565817
 C        -1.505848         2.041858         2.700847
 C        -1.235887         1.866225         1.222751
 O        -2.168676        -0.422737         2.630508
 C        -0.899598        -0.457361         2.090232
 H         0.415694        -0.223181        -0.650246
 H        -2.024158         0.695885        -1.004564
 H        -2.741157        -0.745329         0.150731
 H        -3.519367         1.850055         0.522909
 H        -3.461526         1.215185         3.228225
 H        -1.870324         3.029052         3.009645
 H        -0.715851         1.821560         3.402949
 H        -0.946633         2.666613         0.535873
 H        -0.177470        -0.231084         2.896556
 H        -0.656551        -1.476361         1.651536
