19
Iteration:  3242
 O         0.430586         0.189574         0.197655
 C        -0.830893         0.315762         0.911939
 C        -2.159624         0.207761        -0.026534
 C        -2.639315         1.431411         0.884188
 C        -2.622735         0.895722         2.386958
 C        -1.507596         1.982419         2.711036
 C        -1.210408         1.810675         1.227978
 O        -2.132290        -0.267062         2.792910
 C        -0.852453        -0.589449         2.111907
 H         0.690012         1.056248        -0.121206
 H        -1.984250         0.543866        -1.030836
 H        -2.790705        -0.686064         0.189715
 H        -3.378610         2.223919         0.549075
 H        -3.597080         0.978845         2.950324
 H        -1.757887         3.024604         2.985799
 H        -0.585748         1.852074         3.364590
 H        -0.573619         2.525318         0.669963
 H        -0.008530        -0.474543         2.909234
 H        -0.811108        -1.575623         1.757844
