19
Iteration:  2708
 O         0.472401         0.113954         0.109284
 C        -0.793627         0.299691         0.780898
 C        -2.149501         0.238618         0.077825
 C        -2.589856         1.406770         0.949567
 C        -2.659188         0.931313         2.442269
 C        -1.664961         2.167364         2.763835
 C        -1.113176         1.825647         1.326908
 O        -2.100344        -0.339486         2.770802
 C        -0.849923        -0.558867         2.086612
 H         0.274756         0.243452        -0.841637
 H        -2.139428         0.669504        -0.935748
 H        -2.642670        -0.768605         0.160121
 H        -3.351262         2.024854         0.547496
 H        -3.678137         0.808439         2.833635
 H        -2.153069         3.198906         2.821782
 H        -0.836717         2.060110         3.540806
 H        -0.624180         2.613692         0.740574
 H         0.075473        -0.499378         2.685204
 H        -0.926377        -1.585700         1.799171
