19
Iteration:  1364
 O         0.432657         0.126339         0.065626
 C        -0.727960         0.341642         0.855453
 C        -2.146201         0.114897         0.082756
 C        -2.653658         1.332903         0.900276
 C        -2.658375         1.035298         2.479790
 C        -1.555468         2.018373         2.791321
 C        -1.128907         1.836626         1.268711
 O        -2.200566        -0.321040         2.653116
 C        -0.826402        -0.467197         2.188902
 H         0.523630         0.917165        -0.530821
 H        -2.132467         0.463951        -0.908060
 H        -2.569999        -0.847975         0.142583
 H        -3.407702         1.961831         0.533159
 H        -3.526654         1.257272         3.078414
 H        -1.813643         3.061755         2.929559
 H        -0.850638         1.639931         3.493509
 H        -0.795088         2.598888         0.675769
 H        -0.043314        -0.051966         2.890967
 H        -0.632804        -1.557257         1.947515
