19
Iteration:   146
 O         0.412108         0.312820         0.190181
 C        -0.776376         0.409831         0.855057
 C        -2.122771         0.363431         0.079476
 C        -2.626015         1.424231         1.007875
 C        -2.627506         0.936271         2.567615
 C        -1.376300         2.021214         2.680781
 C        -1.092655         1.796660         1.231949
 O        -2.298195        -0.513423         2.583939
 C        -0.963393        -0.602545         2.013441
 H         0.858157        -0.523206         0.489644
 H        -2.039670         0.585853        -0.916538
 H        -2.644496        -0.662964         0.209602
 H        -3.484389         2.133902         0.673580
 H        -3.614411         1.034466         3.160473
 H        -1.803013         2.967726         2.819752
 H        -0.619055         2.016408         3.450394
 H        -0.402142         2.447675         0.683742
 H        -0.174822        -0.512190         2.859424
 H        -0.783008        -1.577532         1.504685
