19
Iteration:  1171charge 0 multiplicity 1
 O         0.492840         0.059345         0.258764
 C        -0.778670         0.366657         0.798709
 C        -2.168154         0.301653        -0.038601
 C        -2.611948         1.364802         0.967264
 C        -2.628392         0.930081         2.500768
 C        -1.576109         2.091179         2.768984
 C        -1.214536         1.941113         1.251955
 O        -2.069110        -0.337235         2.738910
 C        -0.896587        -0.617676         2.065555
 H         0.307409         0.076721        -0.715333
 H        -2.190978         0.705717        -1.123986
 H        -2.671797        -0.662150        -0.142722
 H        -3.344930         2.151436         0.752576
 H        -3.565310         0.979510         3.079111
 H        -2.330968         2.909708         2.765123
 H        -0.850879         2.096909         3.621980
 H        -0.677976         2.631486         0.437350
 H         0.097646        -0.491346         2.486489
 H        -0.948649        -1.603243         1.674134
