19
Iteration:  4170
 O         0.433413         0.167840         0.305431
 C        -0.886919         0.456328         0.887437
 C        -2.207439         0.072608         0.099571
 C        -2.716843         1.259739         0.952240
 C        -2.537812         0.977546         2.466428
 C        -1.531137         2.094960         2.511056
 C        -1.322596         1.960761         1.060781
 O        -1.962855        -0.378511         2.834350
 C        -0.775672        -0.461287         2.080378
 H         0.414624        -0.501062        -0.371968
 H        -2.176558         0.403012        -0.907172
 H        -2.587957        -0.989536         0.383493
 H        -3.595789         1.852140         0.592287
 H        -3.438198         1.192155         3.043177
 H        -2.057339         3.000780         2.772966
 H        -0.571834         1.910220         3.025594
 H        -1.062631         2.852182         0.376241
 H        -0.031345        -0.310478         2.865534
 H        -0.573183        -1.477237         1.858206
