19
Iteration:  1414charge 0 multiplicity 1
 O         0.543663         0.108680         0.403734
 C        -0.808027         0.326195         0.750751
 C        -2.137895         0.230610        -0.080227
 C        -2.666257         1.292436         1.013350
 C        -2.570087         0.954530         2.603140
 C        -1.522409         2.087184         2.688173
 C        -1.287948         1.920121         1.124545
 O        -2.047309        -0.304000         2.797169
 C        -0.999684        -0.587995         1.952729
 H         0.718695         0.605778        -0.415178
 H        -2.226059         0.718902        -1.121330
 H        -2.688172        -0.787386         0.002824
 H        -3.618466         1.949088         0.791031
 H        -3.569042         1.074880         3.046850
 H        -2.098920         3.042299         2.731314
 H        -0.584403         2.097962         3.317598
 H        -0.706893         2.643686         0.394400
 H        -0.073057        -0.441311         2.429641
 H        -1.077840        -1.576071         1.555737
