19
Iteration:  4393charge 0 multiplicity 1
 O         0.398187         0.131631         0.138218
 C        -0.780859         0.389577         0.808888
 C        -2.188029         0.102275         0.081598
 C        -2.704216         1.263603         0.909794
 C        -2.660914         0.941948         2.495784
 C        -1.571010         2.114150         2.620460
 C        -1.295868         1.885832         1.069989
 O        -2.044626        -0.310874         2.841380
 C        -0.675301        -0.373228         2.194322
 H         0.598047        -0.828521         0.194717
 H        -2.129903         0.415062        -0.999654
 H        -2.597113        -0.904954         0.090985
 H        -3.510721         1.877161         0.528770
 H        -3.571301         0.973816         3.109973
 H        -2.085588         3.034724         2.983550
 H        -0.788326         1.907689         3.323956
 H        -0.748521         2.642928         0.606547
 H         0.015061         0.155630         2.839825
 H        -0.222771        -1.405338         2.037341
