19
Iteration:   339
 O         0.507831         0.100156         0.197506
 C        -0.799582         0.436982         0.855192
 C        -2.094819         0.272184         0.034826
 C        -2.735519         1.416764         0.936045
 C        -2.683031         0.986180         2.491330
 C        -1.458512         1.938071         2.709573
 C        -1.201202         1.837899         1.284351
 O        -2.134553        -0.300012         2.709397
 C        -0.964502        -0.618989         1.983940
 H         1.196856         0.801200         0.191678
 H        -2.034054         0.619542        -1.013630
 H        -2.506223        -0.729173        -0.054678
 H        -3.578259         2.077179         0.610285
 H        -3.568084         1.018581         3.176418
 H        -1.728650         2.971814         3.018795
 H        -0.708913         1.541063         3.501040
 H        -0.602910         2.678150         0.950762
 H        -0.048997        -0.479428         2.587406
 H        -1.048355        -1.647344         1.538387
