19
Iteration:  3167
 O         0.365510         0.245343         0.166855
 C        -0.827843         0.348166         0.875956
 C        -2.102352         0.265872        -0.031178
 C        -2.571598         1.358204         0.872331
 C        -2.668164         0.916946         2.371887
 C        -1.567204         1.995407         2.721113
 C        -1.135804         1.796925         1.313700
 O        -2.069979        -0.314641         2.802422
 C        -0.868688        -0.512413         2.155176
 H         0.194732        -0.510027        -0.450898
 H        -1.819435         0.634885        -1.028289
 H        -2.609404        -0.667433        -0.024648
 H        -3.407745         2.121549         0.635626
 H        -3.698223         1.015504         2.822042
 H        -2.058027         2.956076         2.983234
 H        -0.757972         1.668485         3.444361
 H        -0.626415         2.482892         0.609796
 H        -0.136531        -0.112451         2.882980
 H        -0.804250        -1.618864         1.836084
