19
Iteration:  4797charge 0 multiplicity 1
 O         0.282681         0.051347         0.025625
 C        -0.785586         0.409964         0.842020
 C        -2.027739         0.098492         0.133326
 C        -2.683221         1.293123         0.877710
 C        -2.635190         0.926883         2.453764
 C        -1.606216         2.068660         2.701700
 C        -1.261944         1.882558         1.205325
 O        -2.060312        -0.272741         2.741032
 C        -0.743301        -0.386852         2.233205
 H         1.116415         0.512039         0.123532
 H        -2.018139         0.180030        -0.994959
 H        -2.583359        -0.836106         0.413445
 H        -3.480661         1.936007         0.347725
 H        -3.627838         0.853071         3.087821
 H        -1.979082         3.133246         2.808790
 H        -0.785906         1.966182         3.428749
 H        -0.631686         2.587785         0.682625
 H        -0.041986         0.070318         2.924032
 H        -0.511274        -1.491951         2.102114
