19
Iteration:  4091
 O         0.292920         0.213563         0.057099
 C        -0.808920         0.382169         0.910655
 C        -2.153982         0.050855         0.191820
 C        -2.619614         1.302163         0.870070
 C        -2.595209         0.997149         2.457375
 C        -1.665474         2.158012         2.672608
 C        -1.189336         1.864211         1.128566
 O        -2.008327        -0.332732         2.718220
 C        -0.703498        -0.459210         2.177981
 H         0.477448        -0.719458         0.176461
 H        -2.063927         0.132912        -0.941905
 H        -2.671614        -0.803860         0.616569
 H        -3.496656         1.809411         0.400848
 H        -3.530916         0.906127         3.042579
 H        -2.088157         3.160834         2.945350
 H        -0.991079         1.918453         3.562375
 H        -0.605859         2.552827         0.384597
 H         0.097460        -0.207996         3.049609
 H        -0.743289        -1.491332         2.002401
