19
Iteration:   377
 O         0.395978         0.127260        -0.025829
 C        -0.717489         0.350421         0.842978
 C        -2.174166         0.239973        -0.005794
 C        -2.582964         1.436206         0.958591
 C        -2.615248         0.912144         2.476489
 C        -1.511826         2.040785         2.797131
 C        -1.035258         1.874709         1.384138
 O        -2.260604        -0.436608         2.574743
 C        -0.929415        -0.538762         2.224854
 H         0.907812         0.953376         0.196592
 H        -2.066397         0.509708        -1.083534
 H        -2.779406        -0.750466         0.287337
 H        -3.263312         2.256804         0.820812
 H        -3.635562         0.926558         2.857536
 H        -2.167351         2.940472         2.759451
 H        -0.819545         2.095907         3.689785
 H        -0.505520         2.701678         0.868614
 H        -0.261635         0.013380         3.039001
 H        -0.678840        -1.610570         2.187953
