19
Iteration:  3006
 O         0.438504         0.148197         0.078793
 C        -0.729145         0.343275         0.807037
 C        -2.181406         0.154550         0.025119
 C        -2.592961         1.359830         0.907863
 C        -2.697732         0.961490         2.504389
 C        -1.524617         2.001086         2.804331
 C        -1.151746         1.842270         1.304739
 O        -2.229067        -0.353846         2.657231
 C        -0.782677        -0.407916         2.199468
 H         0.149194         0.276031        -0.842586
 H        -1.912251         0.577595        -1.011472
 H        -2.616700        -0.890689         0.087398
 H        -3.043606         2.329960         0.581052
 H        -3.670719         1.014397         3.030565
 H        -2.001815         2.987297         2.990591
 H        -0.893072         1.723769         3.622147
 H        -0.624773         2.543639         0.612293
 H        -0.018028         0.009000         3.040093
 H        -0.694468        -1.454620         2.038148
