19
Iteration:  2555
 O         0.432085         0.117909         0.284991
 C        -0.848937         0.366822         0.840432
 C        -2.164547         0.249305        -0.006944
 C        -2.709542         1.411521         0.898705
 C        -2.615308         0.997567         2.508342
 C        -1.426506         2.015913         2.665195
 C        -1.225542         1.885206         1.205837
 O        -2.161237        -0.421894         2.680639
 C        -0.771281        -0.502017         2.150577
 H         0.375313         0.273926        -0.664967
 H        -1.924169         0.358111        -1.026533
 H        -2.497808        -0.741644         0.093082
 H        -3.572634         2.059251         0.812967
 H        -3.540361         0.982661         3.116377
 H        -1.824618         2.996915         2.952890
 H        -0.667332         1.738591         3.384584
 H        -0.658249         2.583283         0.558322
 H        -0.080710        -0.026175         2.799708
 H        -0.702424        -1.570170         1.942423
