19
Iteration:  3786
 O         0.420715         0.183299        -0.003739
 C        -0.706087         0.322292         0.817304
 C        -2.097355         0.106006         0.070544
 C        -2.700586         1.205633         0.940032
 C        -2.691950         1.056615         2.537940
 C        -1.593652         2.092847         2.664073
 C        -1.243853         1.762940         1.175350
 O        -2.100839        -0.255033         2.852934
 C        -0.807012        -0.469787         2.139707
 H         1.257196         0.612433         0.322987
 H        -1.937044         0.509915        -0.964169
 H        -2.638567        -0.856870         0.235257
 H        -3.501043         1.696420         0.406808
 H        -3.670090         1.149429         3.020956
 H        -1.894667         3.091216         2.885500
 H        -0.949495         1.901797         3.513932
 H        -0.848525         2.678821         0.613201
 H         0.102302        -0.197809         2.770650
 H        -0.851919        -1.473133         2.025222
