19
Iteration:  3507charge 0 multiplicity 1
 O         0.521183         0.187490         0.254873
 C        -0.816696         0.356864         0.817890
 C        -2.205441         0.210704        -0.038170
 C        -2.673256         1.292434         0.909912
 C        -2.633270         0.972170         2.484497
 C        -1.494777         2.107026         2.690597
 C        -1.242652         1.774969         1.143749
 O        -2.119575        -0.332077         2.816245
 C        -0.815578        -0.472043         2.139537
 H         0.352562        -0.326845        -0.545590
 H        -2.165409         0.726557        -1.006908
 H        -2.685569        -0.800743         0.066785
 H        -3.579921         1.791580         0.578639
 H        -3.490123         1.033505         3.102629
 H        -2.038535         2.991015         2.787840
 H        -0.810243         1.825610         3.436571
 H        -0.779197         2.478069         0.481340
 H        -0.011672         0.060337         2.658991
 H        -0.530496        -1.483493         2.094107
