19
Iteration:  4224charge 0 multiplicity 1
 O         0.375784         0.216650        -0.031352
 C        -0.748578         0.282431         0.856930
 C        -2.054738         0.087961         0.160724
 C        -2.648626         1.244214         0.911636
 C        -2.661634         0.966848         2.490980
 C        -1.612292         2.153244         2.695424
 C        -1.218216         1.841343         1.143462
 O        -2.095627        -0.287349         2.850569
 C        -0.739664        -0.438038         2.220656
 H         0.072783         0.043753        -0.935385
 H        -2.037606         0.282949        -0.930982
 H        -2.599006        -0.927771         0.347788
 H        -3.607819         1.622370         0.480625
 H        -3.672701         1.193574         2.867330
 H        -2.237625         3.105083         2.809625
 H        -0.755522         2.133185         3.487293
 H        -0.519064         2.505201         0.490863
 H        -0.088904        -0.115350         2.989553
 H        -0.723720        -1.479502         2.092446
