19
Iteration:  2137
 O         0.433768         0.055879         0.253714
 C        -0.857076         0.342118         0.813779
 C        -2.075709         0.234473         0.052621
 C        -2.680568         1.352225         0.956288
 C        -2.669160         0.947565         2.532388
 C        -1.473085         2.057337         2.651035
 C        -1.263548         1.927222         1.172261
 O        -2.106335        -0.337964         2.743631
 C        -0.859603        -0.502853         2.095412
 H         0.549270         0.685867        -0.492674
 H        -1.897950         0.652057        -0.956215
 H        -2.452337        -0.802408        -0.110305
 H        -3.511651         1.914986         0.524811
 H        -3.593415         0.995420         3.156798
 H        -1.746397         3.015796         2.885101
 H        -0.617290         1.905240         3.242222
 H        -0.658385         2.678448         0.644381
 H         0.163914        -0.371577         2.600178
 H        -0.831739        -1.577472         1.832420
