19
Iteration:  4171
 O         0.438691         0.167937         0.301443
 C        -0.893767         0.456053         0.880662
 C        -2.209549         0.062616         0.103469
 C        -2.717964         1.266790         0.949260
 C        -2.541294         0.967871         2.466072
 C        -1.526728         2.100498         2.513435
 C        -1.317100         1.966783         1.063788
 O        -1.968521        -0.369526         2.836076
 C        -0.768672        -0.469493         2.076752
 H         0.418104        -0.495439        -0.388924
 H        -2.146344         0.394841        -0.876706
 H        -2.632407        -0.988828         0.360866
 H        -3.601353         1.837227         0.601382
 H        -3.443217         1.209847         3.018749
 H        -2.051263         2.989395         2.757050
 H        -0.621716         1.906674         3.036221
 H        -1.095919         2.868029         0.443743
 H         0.016957        -0.292757         2.890802
 H        -0.556732        -1.527315         1.884167
