19
Iteration:  1449
 O         0.453289         0.194155         0.185597
 C        -0.781174         0.343093         0.871756
 C        -2.041247         0.183194         0.051019
 C        -2.629538         1.370882         0.919927
 C        -2.645925         0.992287         2.533241
 C        -1.541396         1.991879         2.695696
 C        -1.182387         1.853346         1.162275
 O        -2.152786        -0.325656         2.760014
 C        -0.906117        -0.527371         2.087107
 H         0.133177         0.383343        -0.707318
 H        -2.054129         0.495234        -1.037534
 H        -2.591670        -0.836940         0.058331
 H        -3.599717         1.795894         0.659793
 H        -3.519910         1.103615         3.146929
 H        -1.983450         2.993382         2.881214
 H        -0.755619         1.950213         3.440826
 H        -0.552581         2.649936         0.586363
 H        -0.112773        -0.443483         2.753155
 H        -0.930764        -1.588454         1.803274
