19
Iteration:  4604charge 0 multiplicity 1
 O         0.450484         0.139329         0.310934
 C        -0.802055         0.399440         0.851781
 C        -2.110270         0.123301         0.104268
 C        -2.756814         1.274216         0.988673
 C        -2.602883         0.934401         2.537047
 C        -1.503855         2.099434         2.541512
 C        -1.376411         1.836478         1.083738
 O        -2.081423        -0.317917         2.729709
 C        -0.721573        -0.409391         2.097998
 H         0.423033        -0.026602        -0.643927
 H        -2.109343         0.309713        -1.076827
 H        -2.640822        -0.868930         0.311478
 H        -3.664254         1.941414         0.783044
 H        -3.486780         1.015331         3.237282
 H        -1.901971         3.106679         2.769980
 H        -0.480641         2.247034         3.057698
 H        -1.024000         2.622633         0.368232
 H         0.135063        -0.152503         2.711784
 H        -0.565306        -1.547190         1.940129
