19
Iteration:  2123
 O         0.433376         0.062367         0.341842
 C        -0.787477         0.457256         0.846841
 C        -2.114800         0.224762        -0.048818
 C        -2.688614         1.297487         0.956777
 C        -2.580881         0.996432         2.511069
 C        -1.471909         2.083018         2.688131
 C        -1.250790         1.872610         1.112870
 O        -2.089139        -0.378538         2.837343
 C        -0.910831        -0.531113         1.985888
 H         0.641261         0.469136        -0.517275
 H        -2.011975         0.727922        -1.010920
 H        -2.618888        -0.757412         0.031944
 H        -3.566167         2.032764         0.762948
 H        -3.521043         1.125486         3.138419
 H        -1.944168         3.041323         2.899632
 H        -0.661255         1.610071         3.293009
 H        -1.052419         2.685304         0.323687
 H        -0.139370        -0.321903         2.699676
 H        -0.863891        -1.480112         1.452953
