19
Iteration:  4857charge 0 multiplicity 1
 O         0.467074         0.205301         0.159459
 C        -0.783359         0.403960         0.794187
 C        -2.143005         0.001865         0.079443
 C        -2.698251         1.223972         0.954389
 C        -2.601803         1.061603         2.493122
 C        -1.569653         2.167232         2.653180
 C        -1.315211         1.860190         1.109422
 O        -2.008601        -0.253383         2.877082
 C        -0.895039        -0.619483         2.018332
 H         1.043285         0.641517         0.811688
 H        -2.263684         0.371664        -0.920460
 H        -2.594376        -0.981139         0.297134
 H        -3.434060         1.828792         0.440019
 H        -3.428302         1.180086         3.114638
 H        -1.890257         3.192399         2.808345
 H        -0.763522         1.882841         3.383617
 H        -0.868787         2.679072         0.490371
 H         0.053365        -0.670672         2.551857
 H        -1.009538        -1.659379         1.773456
