19
Iteration:   661
 O         0.503079        -0.049111         0.083559
 C        -0.759697         0.363001         0.781040
 C        -2.110466         0.322207         0.069733
 C        -2.631536         1.449777         0.941252
 C        -2.748832         0.972440         2.466949
 C        -1.587392         1.966610         2.825161
 C        -1.142282         1.924669         1.390094
 O        -2.145548        -0.327343         2.642308
 C        -0.852316        -0.499194         2.078349
 H         0.450429         0.290469        -0.821360
 H        -1.938055         0.752156        -0.873923
 H        -2.598396        -0.665251         0.153089
 H        -3.495391         1.940824         0.581341
 H        -3.724991         0.726203         2.947368
 H        -1.965936         3.029259         3.082300
 H        -0.840103         1.858942         3.723243
 H        -0.576255         2.697260         0.849524
 H        -0.029021        -0.149849         2.788172
 H        -0.906896        -1.570930         1.884091
