19
Iteration:  3294charge 0 multiplicity 1
 O         0.425775         0.031651         0.086680
 C        -0.745310         0.389677         0.900453
 C        -2.083082         0.245091         0.115041
 C        -2.631607         1.332347         1.013957
 C        -2.620743         0.997949         2.499353
 C        -1.558240         2.101452         2.734726
 C        -1.215776         2.006047         1.153973
 O        -2.183360        -0.452431         2.618914
 C        -0.890494        -0.547164         2.100316
 H         1.204322         0.515036         0.378625
 H        -2.053027         0.600689        -0.962574
 H        -2.579349        -0.826249         0.377863
 H        -3.431665         1.924868         0.598876
 H        -3.589813         1.072450         3.066806
 H        -2.068239         3.070712         2.868407
 H        -0.775301         2.011482         3.551341
 H        -0.842285         2.878110         0.587245
 H        -0.075069        -0.304708         2.763098
 H        -0.626817        -1.638169         1.820172
