19
Iteration:  1962charge 0 multiplicity 1
 O         0.530233         0.266810         0.292872
 C        -0.807104         0.340955         0.828521
 C        -2.163271         0.159126        -0.001684
 C        -2.651837         1.272543         0.950538
 C        -2.645888         1.037641         2.536377
 C        -1.349738         2.058661         2.684887
 C        -1.286209         1.785195         1.242007
 O        -2.169632        -0.256763         2.752837
 C        -0.930417        -0.649145         1.999453
 H         0.600325         0.642368        -0.624113
 H        -2.088976         0.601686        -1.009401
 H        -2.592617        -0.894126        -0.109113
 H        -3.468942         2.030713         0.668577
 H        -3.644816         0.983416         3.129544
 H        -1.634606         3.166882         2.822330
 H        -0.658570         1.575861         3.378461
 H        -0.947542         2.643692         0.675149
 H        -0.063678        -0.437056         2.470422
 H        -1.150753        -1.646482         1.558559
