19
Iteration:  2231
 O         0.568670         0.059411         0.281689
 C        -0.872786         0.405640         0.767782
 C        -2.121230         0.242061        -0.076022
 C        -2.791969         1.300452         0.949248
 C        -2.546361         1.024822         2.594970
 C        -1.481096         2.034010         2.714089
 C        -1.189253         1.831769         1.139821
 O        -2.109953        -0.357472         2.786602
 C        -0.936930        -0.487086         2.079174
 H         0.469800         0.404271        -0.607194
 H        -2.132659         0.813337        -1.041216
 H        -2.562903        -0.765878        -0.224492
 H        -3.732475         1.883154         0.669025
 H        -3.502925         1.193040         3.103232
 H        -1.996817         3.144944         2.774595
 H        -0.734961         2.002362         3.631440
 H        -0.815613         2.695476         0.554681
 H        -0.078213        -0.418789         2.915369
 H        -0.867740        -1.525491         1.673001
