19
Iteration:   530
 O         0.383974         0.156650         0.069173
 C        -0.748706         0.315205         0.873589
 C        -2.048320         0.296996         0.010899
 C        -2.588051         1.369465         0.971198
 C        -2.668713         0.997793         2.487173
 C        -1.555769         2.110626         2.844044
 C        -1.145017         1.707252         1.295491
 O        -2.190032        -0.354192         2.566831
 C        -0.860168        -0.525720         2.196267
 H        -0.008760        -0.009062        -0.782239
 H        -1.935149         0.588121        -1.055898
 H        -2.550011        -0.700681        -0.075049
 H        -3.214207         2.139040         0.723422
 H        -3.597108         0.818414         3.029922
 H        -2.017192         3.185556         2.863403
 H        -0.847775         2.021847         3.806615
 H        -0.673258         2.524616         0.704779
 H        -0.131174        -0.216624         2.963513
 H        -0.648336        -1.566477         2.059397
