19
Iteration:  4766
 O         0.485335         0.186038        -0.031280
 C        -0.757309         0.299045         0.786297
 C        -2.159895         0.061344         0.136798
 C        -2.643680         1.272967         0.955783
 C        -2.651062         0.963019         2.526893
 C        -1.703872         2.200380         2.698832
 C        -1.229379         1.818198         1.167083
 O        -2.059243        -0.219136         2.818481
 C        -0.784273        -0.531243         2.139341
 H         1.308704         0.001279         0.490306
 H        -2.273121         0.391322        -0.934606
 H        -2.677905        -0.852558         0.409362
 H        -3.496195         1.995920         0.556363
 H        -3.728767         0.840435         2.982858
 H        -2.177032         3.223401         2.641521
 H        -1.021193         2.222954         3.600397
 H        -0.738479         2.535651         0.488622
 H         0.005319        -0.418756         2.863991
 H        -0.758980        -1.526086         1.928209
