19
Iteration:  3384
 O         0.415558         0.141290         0.234371
 C        -0.846974         0.387559         0.929201
 C        -2.068428         0.160101         0.110028
 C        -2.636067         1.310522         0.968978
 C        -2.621078         0.962542         2.459442
 C        -1.555883         2.094268         2.658888
 C        -1.182219         1.959832         1.215079
 O        -2.142277        -0.335981         2.720815
 C        -0.824329        -0.572741         2.008568
 H         0.320549         0.134777        -0.729207
 H        -1.832150         0.531440        -0.908407
 H        -2.690406        -0.824823         0.225708
 H        -3.517845         1.927726         0.624682
 H        -3.630259         0.894249         2.900186
 H        -1.981916         3.107799         2.810129
 H        -0.718967         2.154407         3.381824
 H        -0.530261         2.526548         0.565251
 H        -0.050249        -0.558203         2.713143
 H        -0.818077        -1.517443         1.502210
