19
Iteration:  1674
 O         0.534619         0.168828         0.274026
 C        -0.797986         0.337090         0.828385
 C        -2.076546         0.173923         0.065549
 C        -2.711914         1.318536         1.001527
 C        -2.651171         1.038869         2.553142
 C        -1.461971         2.113228         2.662731
 C        -1.257320         1.877920         1.173189
 O        -2.183507        -0.367423         2.746713
 C        -0.899626        -0.582084         1.963456
 H         0.478991         0.470178        -0.647633
 H        -2.032143         0.668932        -0.911392
 H        -2.564110        -0.763773         0.186958
 H        -3.466373         1.894445         0.430319
 H        -3.511479         1.049918         3.185941
 H        -1.680412         3.120415         2.975217
 H        -0.584413         1.898032         3.319892
 H        -0.820741         2.621062         0.594530
 H        -0.040539        -0.610028         2.519165
 H        -1.015355        -1.617595         1.609875
