19
Iteration:   286charge 0 multiplicity 1
 O         0.453183         0.144949         0.245991
 C        -0.798794         0.320423         0.912185
 C        -2.114223         0.362654        -0.006609
 C        -2.671271         1.407877         0.925396
 C        -2.606736         0.986322         2.563454
 C        -1.493952         1.972195         2.730462
 C        -1.186547         1.789356         1.193139
 O        -2.190258        -0.354973         2.634067
 C        -0.857133        -0.609123         2.049637
 H         0.592781         0.908022        -0.343914
 H        -1.880469         0.886923        -0.972948
 H        -2.754155        -0.611632        -0.191567
 H        -3.346116         2.121899         0.665389
 H        -3.514340         1.043854         3.242572
 H        -1.938208         2.920835         3.044369
 H        -0.702160         1.779730         3.568543
 H        -0.785805         2.587394         0.660338
 H        -0.011121        -0.566779         2.805275
 H        -1.020932        -1.587922         1.591708
