19
Iteration:  2003charge 0 multiplicity 1
 O         0.444627         0.057944         0.260634
 C        -0.791245         0.391899         0.778391
 C        -2.129826         0.261755        -0.023661
 C        -2.637846         1.336144         0.955414
 C        -2.617201         0.939288         2.505385
 C        -1.520494         2.100966         2.739499
 C        -1.249199         1.907871         1.219108
 O        -2.122457        -0.373931         2.795513
 C        -0.837250        -0.581964         2.017861
 H         0.412049         0.660914        -0.499395
 H        -1.958135         0.626312        -1.062621
 H        -2.730479        -0.698608         0.024041
 H        -3.400085         2.141985         0.604194
 H        -3.623672         1.145664         3.021041
 H        -1.973124         3.049856         2.798792
 H        -0.588414         2.066752         3.327599
 H        -0.921427         2.778990         0.530930
 H        -0.063633        -0.391310         2.910485
 H        -0.805752        -1.720697         1.712846
