19
Iteration:  1893
 O         0.410357        -0.035442         0.046876
 C        -0.772431         0.332761         0.796470
 C        -2.074585         0.220063         0.035807
 C        -2.604317         1.367330         0.998911
 C        -2.717589         1.023255         2.476339
 C        -1.632300         2.003252         2.814702
 C        -1.200782         1.853320         1.343920
 O        -2.112711        -0.309495         2.677521
 C        -0.753360        -0.406529         2.137186
 H         0.651444         0.440662        -0.774042
 H        -1.966315         0.716380        -0.965146
 H        -2.675890        -0.696289        -0.120235
 H        -3.350238         2.037675         0.488340
 H        -3.644597         1.199014         3.056501
 H        -2.013765         2.966154         2.827040
 H        -0.948276         1.806819         3.650610
 H        -0.806427         2.747346         0.806429
 H        -0.123388        -0.045520         2.815775
 H        -0.715988        -1.499630         1.947080
