19
Iteration:   104
 O         0.430110         0.080723         0.053785
 C        -0.786812         0.385444         0.841177
 C        -2.047309         0.326685         0.012613
 C        -2.659597         1.451549         0.928676
 C        -2.784903         1.038399         2.453069
 C        -1.589063         1.906679         2.919649
 C        -1.143957         1.775097         1.432632
 O        -2.094166        -0.335785         2.627515
 C        -0.807029        -0.453198         2.032417
 H         0.159741        -0.775294        -0.375519
 H        -1.935896         0.727328        -0.951405
 H        -2.503871        -0.634827        -0.165174
 H        -3.373106         2.275892         0.475085
 H        -3.737745         0.907885         3.029678
 H        -1.675317         2.984839         3.123883
 H        -0.965635         1.468956         3.723341
 H        -0.516057         2.595780         1.008542
 H         0.003978        -0.249214         2.647812
 H        -0.903060        -1.498673         1.698848
