19
Iteration:  1554
 O         0.550786         0.263474         0.357506
 C        -0.870115         0.301591         0.822782
 C        -2.171103         0.232906        -0.035809
 C        -2.742678         1.265254         0.963069
 C        -2.606299         1.010470         2.519514
 C        -1.451525         2.123849         2.618369
 C        -1.204189         1.761550         1.153582
 O        -2.089820        -0.321559         2.813463
 C        -0.977759        -0.622034         1.993187
 H         0.469280         0.614893        -0.532302
 H        -2.028219         0.906670        -0.877325
 H        -2.570985        -0.748724        -0.243116
 H        -3.347338         2.195796         0.689409
 H        -3.480510         1.044056         3.193951
 H        -1.674602         3.256124         3.022423
 H        -0.588952         1.639273         3.342775
 H        -0.687298         2.291741         0.406140
 H         0.007488        -0.564668         2.722094
 H        -1.087587        -1.704288         1.695674
