19
Iteration:  3109
 O         0.432816         0.238040         0.228673
 C        -0.836784         0.400074         0.818482
 C        -2.145030         0.146569         0.062171
 C        -2.672351         1.409284         0.948724
 C        -2.608384         0.996850         2.504327
 C        -1.482332         2.023998         2.720438
 C        -1.169662         1.924305         1.174564
 O        -2.190263        -0.414935         2.669068
 C        -0.841199        -0.555636         2.026157
 H         0.845519        -0.544524         0.603851
 H        -2.027833         0.396921        -0.935327
 H        -2.520648        -0.837857         0.109869
 H        -3.527979         1.949551         0.595845
 H        -3.480292         1.083558         3.157151
 H        -2.019726         2.921699         3.069838
 H        -0.585025         1.909037         3.390498
 H        -0.684565         2.674318         0.554958
 H        -0.079293        -0.416844         2.874437
 H        -0.634582        -1.558574         1.712126
