19
Iteration:  4622
 O         0.503958         0.116669         0.132003
 C        -0.780111         0.358254         0.819945
 C        -2.137688         0.033990         0.075807
 C        -2.754519         1.198648         0.969717
 C        -2.625507         1.033743         2.554623
 C        -1.587546         2.146878         2.695899
 C        -1.234597         1.898481         1.134886
 O        -2.069232        -0.294267         2.777317
 C        -0.799510        -0.387076         2.113051
 H         0.437888        -0.311806        -0.732742
 H        -2.229332         0.471238        -0.880320
 H        -2.546712        -0.935867         0.153177
 H        -3.530111         1.723232         0.379420
 H        -3.579078         0.965434         3.138254
 H        -2.188025         3.075286         2.894952
 H        -0.916523         1.962349         3.513629
 H        -0.813773         2.652800         0.505300
 H         0.046259         0.089009         2.812667
 H        -0.494362        -1.358160         1.865482
