19
Iteration:  3899
 O         0.475959         0.367187         0.190519
 C        -0.745324         0.347478         0.854593
 C        -2.197631         0.022222         0.129473
 C        -2.704562         1.238957         0.948422
 C        -2.569102         1.039199         2.475130
 C        -1.564534         2.170766         2.570859
 C        -1.262900         1.810324         1.132996
 O        -2.069232        -0.283361         2.856834
 C        -0.841009        -0.639891         2.087039
 H         0.418536        -0.428835        -0.387921
 H        -2.115039         0.363448        -0.921441
 H        -2.667658        -1.052379        -0.040479
 H        -3.517219         1.926366         0.549162
 H        -3.547866         1.186522         2.948901
 H        -2.080603         3.173354         2.775684
 H        -0.790579         2.139046         3.411669
 H        -0.635950         2.427141         0.504391
 H         0.046432        -0.362516         2.728904
 H        -0.889477        -1.686616         1.861008
