19
Iteration:  1496charge 0 multiplicity 1
 O         0.409119        -0.001059         0.129315
 C        -0.770392         0.365969         0.824763
 C        -2.099768         0.200194         0.187740
 C        -2.682462         1.373485         0.926519
 C        -2.662037         0.980015         2.482513
 C        -1.610681         2.002744         2.736015
 C        -1.187034         1.872798         1.294076
 O        -2.122864        -0.300743         2.591915
 C        -0.756670        -0.433584         2.098618
 H         0.634837         0.584999        -0.645576
 H        -1.991796         0.437289        -0.891707
 H        -2.667576        -0.751885         0.204866
 H        -3.217420         2.228364         0.565297
 H        -3.617207         0.964707         3.086822
 H        -2.200257         3.030057         2.730940
 H        -0.801246         1.826840         3.528451
 H        -0.683796         2.696400         0.825697
 H        -0.108121        -0.048799         2.969108
 H        -0.597005        -1.600756         2.041388
