19
Iteration:  3841charge 0 multiplicity 1
 O         0.495630         0.137165         0.111244
 C        -0.743255         0.393641         0.766775
 C        -2.162726         0.085993         0.110625
 C        -2.707031         1.306595         1.030422
 C        -2.647275         0.973008         2.567242
 C        -1.591856         2.166188         2.678926
 C        -1.303598         1.809456         1.098751
 O        -2.066337        -0.332238         2.695398
 C        -0.785220        -0.393968         2.153776
 H         0.854850        -0.758536         0.209675
 H        -2.162756         0.504216        -0.942496
 H        -2.597404        -0.986996         0.160132
 H        -3.536569         1.927975         0.681833
 H        -3.654076         0.904870         2.964472
 H        -2.150339         3.074761         2.621683
 H        -0.821556         2.045381         3.421426
 H        -0.808309         2.682288         0.598519
 H        -0.075282        -0.000957         2.824951
 H        -0.520089        -1.473166         2.231982
