19
Iteration:  4522
 O         0.303453         0.116582         0.011984
 C        -0.793961         0.369420         0.874548
 C        -2.102596         0.044073         0.132202
 C        -2.660995         1.338642         0.857191
 C        -2.597892         0.915139         2.455034
 C        -1.625616         2.193796         2.692091
 C        -1.248108         1.925219         1.136439
 O        -2.025509        -0.369271         2.838832
 C        -0.767458        -0.442475         2.208360
 H         1.128511        -0.021978         0.489117
 H        -1.996243         0.295394        -0.870000
 H        -2.449650        -0.996456         0.244375
 H        -3.431653         1.983160         0.498380
 H        -3.478807         0.885823         3.069680
 H        -2.314391         3.082250         2.629362
 H        -0.854086         2.331812         3.421667
 H        -0.910145         2.688429         0.458031
 H         0.174553         0.024042         2.752828
 H        -0.657106        -1.472646         1.981098
