19
Iteration:  3127charge 0 multiplicity 1
 O         0.501665         0.261183         0.046586
 C        -0.695039         0.366823         0.890995
 C        -2.113968         0.214336         0.165357
 C        -2.610928         1.291591         1.022893
 C        -2.637938         0.967988         2.492839
 C        -1.579641         2.118960         2.705794
 C        -1.177750         1.786924         1.267073
 O        -2.194373        -0.343252         2.623193
 C        -0.956939        -0.554669         2.065298
 H         0.920158        -0.589999         0.203618
 H        -2.180811         0.513239        -0.965112
 H        -2.753336        -0.735144         0.410487
 H        -3.321743         2.016736         0.643781
 H        -3.580623         0.973161         3.019086
 H        -1.934867         3.164152         2.670004
 H        -0.964051         2.068926         3.583366
 H        -0.750023         2.617234         0.668187
 H        -0.052054        -0.529001         2.666136
 H        -0.928548        -1.598215         1.617415
