19
Iteration:   764charge 0 multiplicity 1
 O         0.401185         0.279862         0.155935
 C        -0.786712         0.320312         0.882573
 C        -2.138909         0.281149         0.059004
 C        -2.607810         1.427075         0.976147
 C        -2.629879         0.961765         2.467835
 C        -1.411949         1.976337         2.760590
 C        -1.198908         1.833936         1.239730
 O        -2.219065        -0.379699         2.567996
 C        -0.913167        -0.598753         2.118161
 H         0.868062        -0.589879         0.309680
 H        -1.890834         0.670358        -0.953784
 H        -2.793169        -0.494298        -0.255336
 H        -3.248122         2.303937         0.652063
 H        -3.513778         0.937854         3.020961
 H        -1.732854         3.000339         3.125834
 H        -0.606477         1.718825         3.493169
 H        -0.680997         2.602595         0.645127
 H        -0.196474        -0.407861         2.944536
 H        -0.775652        -1.676340         1.940725
