19
Iteration:   302charge 0 multiplicity 1
 O         0.487798         0.132535         0.306315
 C        -0.820568         0.400122         0.798475
 C        -2.144398         0.345316        -0.069149
 C        -2.652427         1.374458         1.030874
 C        -2.567117         0.913962         2.569617
 C        -1.449411         2.131653         2.677817
 C        -1.176337         1.845946         1.271820
 O        -2.186231        -0.460956         2.704154
 C        -1.014612        -0.654179         1.954027
 H         0.940450         0.931779         0.063262
 H        -1.956229         0.895039        -0.984307
 H        -2.601164        -0.623476        -0.220006
 H        -3.564290         2.071741         0.725777
 H        -3.429482         1.080259         3.176945
 H        -2.009801         3.064942         2.533241
 H        -0.664024         2.172312         3.361787
 H        -0.525235         2.544919         0.608223
 H        -0.169123        -0.580174         2.646292
 H        -0.848532        -1.715849         1.687435
