19
Iteration:  4474charge 0 multiplicity 1
 O         0.503319         0.212408         0.131030
 C        -0.803975         0.345714         0.828800
 C        -2.217962         0.060673         0.069787
 C        -2.669868         1.188208         0.928361
 C        -2.653994         1.060897         2.547168
 C        -1.538097         2.119170         2.637907
 C        -1.312419         1.812652         1.092013
 O        -2.077811        -0.312351         2.843460
 C        -0.752341        -0.349888         2.097107
 H         0.584919        -0.710423        -0.235655
 H        -1.983368         0.326271        -0.971340
 H        -2.622708        -0.933784         0.305879
 H        -3.616288         1.705293         0.626514
 H        -3.486766         1.114328         3.277631
 H        -1.943724         3.084645         2.832637
 H        -0.890105         1.762378         3.472733
 H        -0.828205         2.625468         0.461822
 H         0.043787         0.161889         2.848446
 H        -0.577280        -1.493118         1.936435
