19
Iteration:  3343
 O         0.535094         0.305112         0.094169
 C        -0.784848         0.303878         0.761331
 C        -2.185862         0.210168        -0.004251
 C        -2.629646         1.292688         0.947504
 C        -2.694545         0.981235         2.534761
 C        -1.519554         2.041163         2.711188
 C        -1.167837         1.740184         1.205864
 O        -2.209833        -0.303167         2.834091
 C        -0.875202        -0.492449         2.086736
 H         0.923837        -0.587081         0.312664
 H        -1.956811         0.740840        -0.953464
 H        -2.538241        -0.865602        -0.111112
 H        -3.467229         1.973338         0.704481
 H        -3.640857         1.198263         2.980400
 H        -1.909288         3.058846         2.992018
 H        -0.775590         1.637733         3.458587
 H        -0.630557         2.563928         0.736786
 H         0.129190        -0.242020         2.627753
 H        -0.949238        -1.539391         2.040457
