19
Iteration:  1565
 O         0.508281         0.258229         0.359515
 C        -0.806397         0.294452         0.785441
 C        -2.160435         0.175664         0.019658
 C        -2.644178         1.322334         0.979084
 C        -2.566119         1.017113         2.510894
 C        -1.468065         2.014092         2.662791
 C        -1.246852         1.848891         1.121389
 O        -2.131382        -0.282424         2.788064
 C        -0.986193        -0.657613         1.999309
 H         0.624928         0.614302        -0.555510
 H        -2.065467         0.564470        -1.004947
 H        -2.806730        -0.683016        -0.087935
 H        -3.572970         1.928041         0.662634
 H        -3.494321         1.210740         3.071256
 H        -1.821612         3.134228         3.013451
 H        -0.479079         1.816149         3.298950
 H        -0.825627         2.646957         0.604089
 H         0.027001        -0.404106         2.566283
 H        -0.973367        -1.735944         1.699963
