19
Iteration:  1898charge 0 multiplicity 1
 O         0.400861        -0.059443         0.047281
 C        -0.795051         0.354253         0.793906
 C        -2.048171         0.214757         0.049189
 C        -2.636924         1.370920         0.967257
 C        -2.685305         1.031699         2.498474
 C        -1.616914         2.003151         2.835518
 C        -1.192764         1.865493         1.324601
 O        -2.143252        -0.306228         2.651322
 C        -0.728368        -0.433908         2.101279
 H         0.639191         0.537324        -0.697400
 H        -1.917895         0.679454        -0.918619
 H        -2.673359        -0.674511        -0.094357
 H        -3.440251         1.939648         0.480119
 H        -3.585119         1.245508         3.122554
 H        -2.149745         3.064890         2.923608
 H        -1.100758         1.788516         3.802959
 H        -0.800662         2.739895         0.832733
 H         0.007701         0.058428         2.954813
 H        -0.555072        -1.531297         2.129949
