19
Iteration:   371charge 0 multiplicity 1
 O         0.374872         0.147211         0.004936
 C        -0.735566         0.387344         0.872303
 C        -2.183640         0.217692        -0.022704
 C        -2.496348         1.394649         0.946014
 C        -2.604344         0.922539         2.472331
 C        -1.502509         2.027348         2.785186
 C        -1.104689         1.840829         1.358277
 O        -2.254539        -0.394873         2.588602
 C        -0.931013        -0.552618         2.252857
 H         0.927842         0.923461         0.080534
 H        -2.065808         0.623966        -1.037537
 H        -2.827658        -0.580951         0.011830
 H        -3.255148         2.305464         0.826123
 H        -3.627449         1.000818         2.880971
 H        -2.135351         2.917641         2.857129
 H        -0.834859         1.789197         3.640062
 H        -0.594845         2.707808         0.853314
 H        -0.187920        -0.128412         2.848408
 H        -0.528185        -1.575516         2.122670
