19
Iteration:  3872charge 0 multiplicity 1
 O         0.409523         0.351743         0.210898
 C        -0.803355         0.387475         0.848384
 C        -2.114841        -0.001148         0.097042
 C        -2.726748         1.287891         0.884866
 C        -2.596940         1.020963         2.530315
 C        -1.467016         2.041645         2.585670
 C        -1.283437         1.842837         1.057603
 O        -2.097659        -0.331994         2.862461
 C        -0.828492        -0.464841         2.159356
 H         0.458432        -0.477186        -0.313975
 H        -2.023810         0.245264        -0.992589
 H        -2.438842        -1.017120        -0.014088
 H        -3.554545         1.888198         0.559159
 H        -3.617327         1.121879         2.941324
 H        -1.801153         3.032030         2.788611
 H        -0.662561         1.734576         3.254726
 H        -0.625865         2.578970         0.506622
 H         0.023175        -0.205683         2.760280
 H        -0.796552        -1.696934         1.947347
