19
Iteration:  2508
 O         0.518113         0.188269         0.273968
 C        -0.759008         0.359384         0.763393
 C        -2.103006         0.159829         0.001189
 C        -2.718688         1.301236         0.957743
 C        -2.638390         1.066389         2.576939
 C        -1.486720         2.079422         2.742476
 C        -1.220077         1.775018         1.183854
 O        -2.139912        -0.282552         2.760091
 C        -0.921861        -0.636400         1.991193
 H         0.544452         0.821569        -0.485477
 H        -2.308647         0.648300        -0.958802
 H        -2.697827        -0.767044        -0.033854
 H        -3.493675         1.893903         0.409355
 H        -3.533067         1.082143         3.342805
 H        -1.715147         3.166654         2.827664
 H        -0.590222         1.860354         3.462571
 H        -0.715556         2.516350         0.530744
 H        -0.121010        -0.545412         2.734407
 H        -1.140559        -1.544259         1.593710
