19
Iteration:  2611charge 0 multiplicity 1
 O         0.393751         0.055073         0.065676
 C        -0.778855         0.345633         0.841008
 C        -2.125434         0.221966         0.132861
 C        -2.559864         1.351794         0.878833
 C        -2.656391         0.974328         2.489753
 C        -1.635327         2.087575         2.774602
 C        -1.174125         1.914902         1.263890
 O        -2.099492        -0.299917         2.731789
 C        -0.831945        -0.579563         2.078314
 H         0.725572         0.951835        -0.125726
 H        -1.908450         0.498493        -0.846276
 H        -2.582925        -0.696383         0.264398
 H        -3.398890         1.943285         0.576175
 H        -3.621088         0.962441         2.973122
 H        -2.245665         3.027159         2.797800
 H        -0.915031         2.045904         3.550759
 H        -0.607503         2.617750         0.605346
 H         0.049696        -0.670905         2.705229
 H        -0.957001        -1.680417         1.788489
