19
Iteration:  1181charge 0 multiplicity 1
 O         0.395579         0.020958         0.241257
 C        -0.795683         0.327136         0.849362
 C        -2.119289         0.292084        -0.009796
 C        -2.622458         1.411553         0.948706
 C        -2.635022         0.975911         2.489077
 C        -1.630894         2.088413         2.782235
 C        -1.203668         1.896517         1.233965
 O        -2.051676        -0.344570         2.706938
 C        -0.796627        -0.564717         2.008573
 H         0.354397         0.043014        -0.728833
 H        -1.927225         0.807544        -1.048376
 H        -2.588953        -0.691209         0.001210
 H        -3.395574         2.108441         0.674027
 H        -3.624597         0.847207         2.960619
 H        -2.051143         3.115615         3.022656
 H        -0.928017         1.842724         3.621820
 H        -0.825778         2.885771         0.692694
 H        -0.027226        -0.402660         2.803264
 H        -0.738292        -1.620868         1.770127
