19
Iteration:  3957charge 0 multiplicity 1
 O         0.315461         0.143191         0.097449
 C        -0.737447         0.367720         0.905308
 C        -2.128638         0.173119         0.110211
 C        -2.721618         1.281502         0.868705
 C        -2.631632         0.915029         2.479981
 C        -1.545646         2.041101         2.599439
 C        -1.303215         1.886710         1.139530
 O        -2.029097        -0.325254         2.747946
 C        -0.730193        -0.346776         2.218874
 H         0.538685        -0.729454         0.441624
 H        -1.820701         0.479411        -0.942471
 H        -2.691566        -0.748258         0.198022
 H        -3.528743         1.898111         0.500857
 H        -3.577544         0.915232         3.053903
 H        -2.003873         2.990696         2.978654
 H        -0.694209         1.711746         3.219038
 H        -0.765616         2.558610         0.488344
 H         0.028426         0.208621         2.947812
 H        -0.386530        -1.303217         2.277766
