19
Iteration:  3140
 O         0.493821         0.286671        -0.000561
 C        -0.746095         0.293035         0.801218
 C        -2.084679         0.173927         0.100249
 C        -2.624635         1.394220         0.971690
 C        -2.736965         1.026347         2.519709
 C        -1.634469         2.110056         2.760903
 C        -1.110959         1.786187         1.335267
 O        -2.187308        -0.306491         2.722819
 C        -0.835251        -0.656017         2.055725
 H         0.799431        -0.653293        -0.075719
 H        -1.978074         0.496895        -0.951823
 H        -2.417899        -0.911241         0.080615
 H        -3.327267         2.099520         0.640421
 H        -3.684601         1.100680         3.039834
 H        -2.269899         2.996710         2.745795
 H        -0.890091         2.086498         3.555036
 H        -0.607336         2.492173         0.661556
 H        -0.218441        -0.356324         2.911069
 H        -0.929241        -1.673644         1.857510
