19
Iteration:  3055charge 0 multiplicity 1
 O         0.489260         0.267254         0.162505
 C        -0.758191         0.333275         0.800730
 C        -2.082386         0.261758         0.025460
 C        -2.597942         1.329624         0.948811
 C        -2.639661         0.962605         2.566652
 C        -1.539077         2.121851         2.744384
 C        -1.233797         1.803263         1.243605
 O        -2.129081        -0.318006         2.752950
 C        -0.985183        -0.623944         2.003598
 H         0.601310        -0.666141        -0.100224
 H        -1.912645         0.508881        -0.957851
 H        -2.540017        -0.671869         0.168862
 H        -3.528405         1.802726         0.677379
 H        -3.643174         0.925176         3.005396
 H        -2.042263         3.086241         2.625312
 H        -0.759141         2.206738         3.576263
 H        -0.756472         2.538286         0.611773
 H        -0.089611        -0.515963         2.668930
 H        -0.951943        -1.768132         1.642256
