19
Iteration:  2986charge 0 multiplicity 1
 O         0.460693         0.039089         0.157719
 C        -0.780125         0.363071         0.781791
 C        -2.032332         0.263864         0.077019
 C        -2.728146         1.316467         0.998075
 C        -2.665633         0.963147         2.507799
 C        -1.478175         2.007328         2.747517
 C        -1.187608         1.895202         1.228862
 O        -2.181448        -0.383260         2.647800
 C        -0.885079        -0.425953         2.097759
 H         0.570561         0.676747        -0.555524
 H        -2.031269         0.835550        -0.841616
 H        -2.583440        -0.655319         0.134180
 H        -3.711803         1.762015         0.648828
 H        -3.580832         1.068399         3.097553
 H        -1.850339         3.072662         2.850850
 H        -0.692105         1.807067         3.500826
 H        -0.702082         2.703169         0.559374
 H        -0.070673         0.026738         2.859747
 H        -0.628682        -1.513533         2.150819
