19
Iteration:  3593charge 0 multiplicity 1
 O         0.393181         0.176213         0.169475
 C        -0.855294         0.313925         0.891924
 C        -2.147163         0.116150        -0.015955
 C        -2.649310         1.349126         0.916457
 C        -2.615663         0.962586         2.479877
 C        -1.544916         2.123798         2.583484
 C        -1.250167         1.832667         1.159310
 O        -2.050846        -0.289491         2.851178
 C        -0.829771        -0.569282         2.163668
 H         0.936689         0.982861         0.194880
 H        -1.857828         0.504925        -0.993533
 H        -2.570494        -0.928675        -0.093554
 H        -3.576463         1.895522         0.692596
 H        -3.521437         0.924174         3.001442
 H        -1.897140         3.145706         2.726047
 H        -0.804047         1.976361         3.374406
 H        -0.672527         2.540242         0.610463
 H         0.149461        -0.145009         2.664704
 H        -0.857445        -1.749126         1.911548
