19
Iteration:  4060
 O         0.553524         0.161879         0.108983
 C        -0.817671         0.366753         0.762271
 C        -2.168728         0.155307         0.069100
 C        -2.704141         1.194384         1.013028
 C        -2.614797         1.014818         2.611657
 C        -1.585922         2.111139         2.591719
 C        -1.256230         1.807417         1.131270
 O        -2.103742        -0.336064         2.799346
 C        -0.796222        -0.325595         2.140225
 H         0.318805        -0.756151        -0.178713
 H        -2.287595         0.500706        -0.928567
 H        -2.540759        -0.895666         0.050908
 H        -3.541319         1.659006         0.430683
 H        -3.457417         1.023439         3.310274
 H        -1.948493         3.111786         2.715680
 H        -0.779247         1.924379         3.294172
 H        -0.788287         2.525043         0.388653
 H        -0.144680         0.145187         3.015370
 H        -0.594981        -1.450604         2.099234
