19
Iteration:  2330charge 0 multiplicity 1
 O         0.365308         0.007874         0.163392
 C        -0.742389         0.347050         0.875743
 C        -2.137986         0.253014         0.066475
 C        -2.614204         1.435723         0.909081
 C        -2.674897         1.004178         2.471314
 C        -1.542872         2.036106         2.728754
 C        -1.229190         1.810257         1.249711
 O        -2.084151        -0.396105         2.651049
 C        -0.795403        -0.449918         2.118830
 H         0.344689         0.688870        -0.538436
 H        -1.953232         0.592710        -0.937491
 H        -2.679783        -0.684806         0.221576
 H        -3.395065         2.145228         0.580327
 H        -3.522923         1.088672         3.097173
 H        -2.003747         3.085238         2.753680
 H        -0.841761         1.780108         3.574149
 H        -0.741839         2.603232         0.675421
 H        -0.142804         0.037182         2.925798
 H        -0.614764        -1.488524         2.136612
