19
Iteration:  3362
 O         0.525364         0.286589         0.132768
 C        -0.777690         0.341711         0.833694
 C        -2.058969         0.190558        -0.016786
 C        -2.669221         1.325174         0.946175
 C        -2.642536         1.019564         2.505753
 C        -1.525750         2.071732         2.680580
 C        -1.221891         1.812703         1.243229
 O        -2.133615        -0.320924         2.812268
 C        -0.951002        -0.627858         2.105792
 H         0.462759        -0.484578        -0.482313
 H        -1.988993         0.711245        -0.997538
 H        -2.720167        -0.821058         0.077444
 H        -3.497291         1.981047         0.549451
 H        -3.524013         1.017028         3.200193
 H        -1.979120         3.094839         2.761326
 H        -0.861850         2.048586         3.609347
 H        -0.815635         2.484231         0.480662
 H        -0.210146        -0.538710         2.874213
 H        -0.860062        -1.653716         1.790486
