19
Iteration:    37
 O         0.527224         0.218462         0.279286
 C        -0.810320         0.379733         0.785955
 C        -2.138693         0.305279         0.067965
 C        -2.656209         1.391963         1.017055
 C        -2.615181         0.949573         2.473355
 C        -1.359263         1.883913         2.708746
 C        -1.203537         1.811171         1.228314
 O        -2.192528        -0.360420         2.644524
 C        -1.043538        -0.550324         1.997223
 H         0.841334         1.114599         0.141523
 H        -2.196557         0.631909        -0.906507
 H        -2.570307        -0.715825         0.159051
 H        -3.593334         2.064470         0.755974
 H        -3.557893         1.089362         3.095526
 H        -1.681521         2.867571         2.999046
 H        -0.578574         1.420572         3.320529
 H        -0.710111         2.591873         0.657486
 H        -0.250971        -0.383979         2.588516
 H        -1.033059        -1.582819         1.625301
