19
Iteration:  1047
 O         0.405520         0.037829         0.129861
 C        -0.779884         0.457050         0.838949
 C        -2.021548         0.338562         0.010231
 C        -2.622053         1.388014         0.963779
 C        -2.691326         0.889824         2.450919
 C        -1.571733         1.962580         2.721771
 C        -1.168844         1.879457         1.277082
 O        -2.105000        -0.279667         2.843084
 C        -0.864336        -0.581962         2.098232
 H         0.228220         0.380055        -0.790653
 H        -1.869485         0.542186        -1.144077
 H        -2.638319        -0.583166        -0.103396
 H        -3.466347         1.904891         0.627103
 H        -3.664129         0.881906         2.961779
 H        -2.168474         2.923070         2.816350
 H        -0.882135         1.869656         3.594396
 H        -0.734319         2.732418         0.528408
 H         0.038846        -0.388064         2.642856
 H        -0.907607        -1.512791         1.542430
