19
Iteration:  4625charge 0 multiplicity 1
 O         0.495435         0.123922         0.108317
 C        -0.776890         0.350993         0.813995
 C        -2.119128         0.023001         0.080795
 C        -2.748593         1.193472         0.991177
 C        -2.642864         1.026198         2.522157
 C        -1.607457         2.134099         2.710647
 C        -1.204442         1.904465         1.130049
 O        -2.091434        -0.280121         2.804256
 C        -0.779524        -0.376297         2.115752
 H         0.443325        -0.336567        -0.763324
 H        -2.277046         0.500744        -0.953313
 H        -2.617122        -0.934549         0.140606
 H        -3.538629         1.736517         0.381152
 H        -3.618378         0.976445         3.095689
 H        -2.200009         3.033486         2.967123
 H        -0.874843         2.061318         3.572898
 H        -0.739338         2.676553         0.488609
 H         0.075867         0.044805         2.787569
 H        -0.463436        -1.443355         1.873515
