19
Iteration:   791charge 0 multiplicity 1
 O         0.402562         0.068812         0.081419
 C        -0.772541         0.431820         0.764004
 C        -2.035581         0.396440        -0.006791
 C        -2.621871         1.389677         1.003917
 C        -2.626740         0.971902         2.493653
 C        -1.582178         1.957798         2.831136
 C        -1.122991         1.878982         1.288992
 O        -2.193509        -0.414206         2.710944
 C        -0.878393        -0.517770         2.056343
 H         0.631789        -0.847554         0.392086
 H        -1.974713         0.750150        -1.033951
 H        -2.684029        -0.473353        -0.402003
 H        -3.340353         2.173068         0.648513
 H        -3.623302         1.012797         3.119856
 H        -2.122411         2.882604         2.810301
 H        -1.020158         1.852056         3.756831
 H        -0.606240         2.747241         0.863998
 H        -0.119174        -0.213056         2.783381
 H        -0.699766        -1.579164         1.765047
