19
Iteration:  1362
 O         0.433857         0.124303         0.058030
 C        -0.726942         0.348073         0.863817
 C        -2.138535         0.110302         0.090417
 C        -2.649219         1.332541         0.908658
 C        -2.673642         1.059339         2.467132
 C        -1.549562         2.001818         2.795881
 C        -1.131008         1.827481         1.281629
 O        -2.204312        -0.333191         2.654751
 C        -0.821819        -0.450153         2.179796
 H         0.483695         0.901753        -0.541171
 H        -2.219934         0.460755        -0.956898
 H        -2.595344        -0.926431         0.192384
 H        -3.407347         2.021353         0.465640
 H        -3.580155         1.229558         3.062626
 H        -1.850081         3.054057         2.881506
 H        -0.790995         1.704396         3.511528
 H        -0.703692         2.686368         0.660696
 H        -0.052385        -0.080316         2.900943
 H        -0.566431        -1.583586         1.930221
