19
Iteration:  3517charge 0 multiplicity 1
 O         0.422340         0.162330         0.248716
 C        -0.765932         0.327318         0.888431
 C        -2.167130         0.229135        -0.039656
 C        -2.719885         1.293223         0.947980
 C        -2.602800         0.934199         2.461620
 C        -1.511115         2.013782         2.588391
 C        -1.201796         1.896236         1.134918
 O        -2.141498        -0.370863         2.796655
 C        -0.793163        -0.392791         2.217273
 H         0.355676        -0.020989        -0.690472
 H        -2.072210         0.440669        -1.088701
 H        -2.585907        -0.818692        -0.129929
 H        -3.600200         1.948491         0.858847
 H        -3.486523         1.113313         2.973139
 H        -1.848323         2.980151         2.822753
 H        -0.724341         1.900032         3.283926
 H        -0.732771         2.563089         0.478111
 H         0.037431        -0.020588         2.920720
 H        -0.592584        -1.477597         2.027637
