19
Iteration:   304
 O         0.500162         0.131296         0.308403
 C        -0.848788         0.390344         0.786878
 C        -2.141994         0.329438        -0.065437
 C        -2.638157         1.372396         1.046669
 C        -2.570207         0.911160         2.554030
 C        -1.448390         2.147610         2.692227
 C        -1.168013         1.857426         1.249594
 O        -2.186212        -0.468404         2.716975
 C        -1.024199        -0.656368         1.937646
 H         0.996208         0.946311         0.087935
 H        -1.976344         0.930502        -0.991358
 H        -2.544978        -0.588257        -0.193617
 H        -3.563798         2.065789         0.747128
 H        -3.427968         1.058490         3.155799
 H        -2.025752         3.110197         2.596023
 H        -0.658287         2.193279         3.428962
 H        -0.561383         2.590800         0.603082
 H        -0.208757        -0.515893         2.620884
 H        -0.875644        -1.749002         1.686973
