19
Iteration:  3270charge 0 multiplicity 1
 O         0.435513         0.111140         0.061982
 C        -0.794753         0.326762         0.857715
 C        -2.070138         0.229345        -0.012185
 C        -2.644391         1.317184         0.948958
 C        -2.681592         1.006671         2.501288
 C        -1.617925         2.036342         2.764116
 C        -1.134097         1.764874         1.268678
 O        -2.159624        -0.307290         2.777579
 C        -0.876095        -0.501297         2.076828
 H         0.956428         0.933030         0.071824
 H        -2.065154         0.821234        -0.952342
 H        -2.620317        -0.746322        -0.055656
 H        -3.206831         2.035408         0.428898
 H        -3.543436         1.124479         3.137821
 H        -1.935956         3.088182         2.835738
 H        -0.878683         1.883250         3.511196
 H        -0.535532         2.503993         0.718802
 H        -0.108644        -0.192596         2.726597
 H        -0.551764        -1.594859         1.840062
