19
Iteration:  2988
 O         0.466760         0.046432         0.140129
 C        -0.785128         0.362260         0.798492
 C        -2.037730         0.252885         0.058614
 C        -2.706197         1.322991         1.005912
 C        -2.661309         0.989153         2.507750
 C        -1.498965         2.000507         2.750511
 C        -1.183780         1.873823         1.230424
 O        -2.182131        -0.385978         2.642078
 C        -0.891284        -0.416189         2.112421
 H         0.530150         0.649803        -0.622255
 H        -2.065645         0.759034        -0.848760
 H        -2.578522        -0.642697         0.092683
 H        -3.680185         1.715405         0.677145
 H        -3.569236         1.108131         3.089936
 H        -1.825923         3.062640         2.893711
 H        -0.693800         1.776113         3.524492
 H        -0.718901         2.727961         0.643133
 H        -0.157707         0.019559         2.813916
 H        -0.519456        -1.493337         2.209548
