19
Iteration:  4027charge 0 multiplicity 1
 O         0.415007         0.309549         0.255928
 C        -0.874086         0.356746         0.890185
 C        -2.158735         0.121600         0.048275
 C        -2.694182         1.215616         0.867092
 C        -2.548093         0.956155         2.519474
 C        -1.526071         2.117903         2.550841
 C        -1.307777         1.849141         1.109907
 O        -2.004231        -0.241818         2.886890
 C        -0.860074        -0.571090         2.138105
 H         0.425192        -0.462527        -0.336933
 H        -2.034530         0.473773        -0.956228
 H        -2.547567        -0.910186         0.112384
 H        -3.626184         1.675925         0.419097
 H        -3.444793         1.174046         3.102297
 H        -1.824074         3.117489         2.779678
 H        -0.624601         1.770222         3.026969
 H        -0.695436         2.414997         0.335847
 H         0.177786        -0.403056         2.630346
 H        -0.649058        -1.589098         1.690414
