19
Iteration:  3250charge 0 multiplicity 1
 O         0.398731         0.189164         0.181024
 C        -0.834641         0.274880         0.782365
 C        -2.127566         0.209407        -0.024835
 C        -2.616509         1.443213         0.881061
 C        -2.689639         0.962142         2.390017
 C        -1.504888         2.012818         2.752056
 C        -1.188375         1.803783         1.267905
 O        -2.090178        -0.284207         2.813558
 C        -0.837419        -0.585312         2.166766
 H         0.689522         1.087073         0.016463
 H        -1.851615         0.434988        -1.116663
 H        -2.899955        -0.760335        -0.121465
 H        -3.473709         2.062674         0.734977
 H        -3.717412         1.040494         2.797390
 H        -1.796718         3.067135         2.890907
 H        -0.774891         1.566049         3.478268
 H        -0.674018         2.566325         0.659247
 H         0.020612        -0.426220         2.870086
 H        -0.767966        -1.684844         1.857829
