19
Iteration:  3692charge 0 multiplicity 1
 O         0.408765         0.230337        -0.020649
 C        -0.707605         0.326672         0.828247
 C        -2.013183         0.103861         0.024238
 C        -2.673996         1.248646         0.939992
 C        -2.662459         1.001430         2.497500
 C        -1.620005         2.091472         2.693059
 C        -1.234500         1.843215         1.176736
 O        -2.145891        -0.278908         2.875823
 C        -0.826742        -0.491552         2.181789
 H         0.629845        -0.712720        -0.047385
 H        -1.813790         0.590047        -0.908762
 H        -2.572966        -0.835576         0.167397
 H        -3.508077         1.990094         0.797161
 H        -3.597216         1.053389         3.023820
 H        -2.135274         3.091447         2.727972
 H        -0.870933         2.112412         3.532781
 H        -0.683533         2.602263         0.659591
 H        -0.216390        -0.116237         2.906212
 H        -0.474233        -1.592976         1.917011
