19
Iteration:    21
 O         0.546788         0.178901         0.218652
 C        -0.791649         0.441704         0.737858
 C        -2.253178         0.202768        -0.051343
 C        -2.653007         1.409021         0.894813
 C        -2.651833         1.003511         2.574493
 C        -1.398041         1.891741         2.839793
 C        -1.187874         1.920965         1.246317
 O        -2.296042        -0.404227         2.736809
 C        -0.867411        -0.575723         1.976639
 H         1.110349         0.902791         0.550126
 H        -2.201718         0.409270        -1.229475
 H        -2.802020        -0.713921         0.165847
 H        -3.324044         2.108502         0.566126
 H        -3.536767         1.196575         3.129983
 H        -1.590949         2.904806         3.291786
 H        -0.588650         1.353453         3.348887
 H        -0.697090         2.745841         0.669906
 H         0.143058        -0.351502         2.641385
 H        -0.793589        -1.596600         1.514919
