19
Iteration:  4138
 O         0.518669         0.287219         0.107411
 C        -0.781456         0.276643         0.797264
 C        -2.201616         0.041624         0.045981
 C        -2.725098         1.151516         1.028449
 C        -2.622734         1.095949         2.540106
 C        -1.503789         2.106209         2.601445
 C        -1.308251         1.843529         1.170045
 O        -2.086102        -0.289487         2.827688
 C        -0.833896        -0.448200         2.134970
 H         0.709387        -0.597212        -0.285698
 H        -2.174154         0.483836        -0.907834
 H        -2.429817        -1.057944        -0.036276
 H        -3.501236         1.812668         0.593093
 H        -3.486141         1.127730         3.193383
 H        -1.887704         3.100580         2.675765
 H        -0.627496         2.151414         3.183894
 H        -0.968164         2.625005         0.485021
 H        -0.109103         0.008913         2.923563
 H        -0.621519        -1.534885         1.959879
