19
Iteration:  1805
 O         0.472665         0.169736         0.272688
 C        -0.821961         0.389020         0.825948
 C        -2.171355         0.204036        -0.017863
 C        -2.644375         1.354206         0.928654
 C        -2.642473         0.979072         2.509812
 C        -1.433129         1.988842         2.718857
 C        -1.227257         1.875867         1.197037
 O        -2.147348        -0.356148         2.735677
 C        -0.895136        -0.471995         2.088767
 H         0.407429         0.125039        -0.708233
 H        -2.057057         0.330174        -1.153686
 H        -2.677759        -0.757449         0.121892
 H        -3.478746         2.064037         0.691216
 H        -3.470848         0.972222         3.181991
 H        -1.713551         2.948719         2.999109
 H        -0.585883         1.630753         3.309699
 H        -0.738874         2.525456         0.385660
 H        -0.027276        -0.223651         2.851331
 H        -0.732979        -1.572417         1.741794
