19
Iteration:  1938
 O         0.450800         0.150207         0.244655
 C        -0.763964         0.364651         0.848108
 C        -2.202921         0.235490         0.092252
 C        -2.648022         1.348684         0.941757
 C        -2.575211         0.982178         2.509004
 C        -1.490354         1.986722         2.711592
 C        -1.147377         1.888736         1.130883
 O        -2.240685        -0.383347         2.713126
 C        -0.812183        -0.545254         2.065935
 H         0.560401         0.748519        -0.508832
 H        -2.151555         0.500777        -0.996774
 H        -2.621720        -0.820027         0.161244
 H        -3.450372         2.142508         0.659344
 H        -3.570790         1.126693         3.083220
 H        -1.997331         2.924139         2.761336
 H        -0.774749         1.825363         3.548175
 H        -0.767719         2.760848         0.555782
 H        -0.084191        -0.115822         2.672927
 H        -0.720302        -1.619144         1.711513
