19
Iteration:   628charge 0 multiplicity 1
 O         0.433279         0.190552         0.172621
 C        -0.807971         0.300554         0.831038
 C        -2.157313         0.199639         0.089432
 C        -2.608653         1.421539         0.910937
 C        -2.612594         0.985816         2.462449
 C        -1.428032         2.021712         2.788155
 C        -1.086207         1.940392         1.271827
 O        -2.244615        -0.416781         2.618557
 C        -0.939356        -0.569576         2.096416
 H         0.679628         1.055823        -0.152945
 H        -2.114082         0.445815        -0.930492
 H        -2.765972        -0.734201         0.140589
 H        -3.486510         1.910208         0.582634
 H        -3.571321         1.067914         3.044858
 H        -1.970977         2.992232         2.889939
 H        -0.606033         1.599592         3.494702
 H        -0.465772         2.623548         0.652042
 H        -0.117902        -0.416701         2.857041
 H        -0.817762        -1.643256         1.918083
