19
Iteration:  3381
 O         0.408001         0.165255         0.228698
 C        -0.846713         0.377068         0.942399
 C        -2.067358         0.171370         0.113254
 C        -2.630296         1.298410         0.976508
 C        -2.608816         0.971501         2.474626
 C        -1.577670         2.088785         2.652926
 C        -1.174546         1.946986         1.194187
 O        -2.153021        -0.332539         2.726778
 C        -0.828634        -0.576089         2.009992
 H         0.355800         0.033992        -0.731070
 H        -1.848220         0.506731        -0.898350
 H        -2.548464        -0.753492         0.148198
 H        -3.449961         1.932737         0.616412
 H        -3.650641         0.889880         2.900390
 H        -1.941953         3.092597         2.833898
 H        -0.737402         2.161031         3.332038
 H        -0.490118         2.557018         0.556749
 H         0.048999        -0.570160         2.690940
 H        -0.908386        -1.622297         1.468384
