19
Iteration:  1194
 O         0.390707        -0.020116         0.127211
 C        -0.778731         0.404615         0.852282
 C        -2.062029         0.286889         0.107552
 C        -2.663567         1.384247         0.916750
 C        -2.701817         0.962395         2.436199
 C        -1.588672         2.024626         2.758606
 C        -1.188356         1.872102         1.341644
 O        -2.104914        -0.348156         2.679954
 C        -0.802463        -0.446903         2.100400
 H         0.298047         0.342753        -0.772782
 H        -1.794111         0.622402        -0.929443
 H        -2.633193        -0.639586        -0.051302
 H        -3.573981         1.926247         0.544977
 H        -3.617033         1.016765         2.989798
 H        -1.875923         3.066173         2.956493
 H        -0.858065         1.624534         3.484433
 H        -0.454859         2.550849         0.804061
 H         0.068511        -0.158366         2.623798
 H        -0.603964        -1.435055         1.839808
