19
Iteration:  1864
 O         0.427382         0.166130         0.225520
 C        -0.838423         0.332590         0.819315
 C        -2.131352         0.245543         0.031170
 C        -2.635110         1.394729         0.925016
 C        -2.584744         0.999035         2.454197
 C        -1.533605         2.032816         2.712509
 C        -1.173584         1.906707         1.228172
 O        -2.124806        -0.376398         2.806505
 C        -0.874530        -0.622933         2.060060
 H         0.478812         0.195167        -0.763040
 H        -1.963945         0.540026        -1.003258
 H        -2.719643        -0.708465         0.107260
 H        -3.543102         1.973569         0.555820
 H        -3.502579         1.226334         3.096168
 H        -2.067266         3.077637         2.764389
 H        -0.774679         1.917968         3.548077
 H        -0.617016         2.552806         0.590420
 H         0.101918        -0.321561         2.780053
 H        -0.873692        -1.667745         1.616858
