19
Iteration:   966
 O         0.394169         0.124197         0.092919
 C        -0.793641         0.409020         0.812184
 C        -2.082681         0.231251         0.008185
 C        -2.646222         1.378916         0.948532
 C        -2.631402         0.984393         2.458508
 C        -1.446369         1.959867         2.792963
 C        -1.225984         1.862472         1.311370
 O        -2.184134        -0.345089         2.660118
 C        -0.906011        -0.534673         2.115044
 H         1.160342         0.583188         0.529668
 H        -2.009115         0.520209        -0.970705
 H        -2.631367        -0.690542         0.305925
 H        -3.288900         2.225137         0.539758
 H        -3.569849         1.066678         3.041942
 H        -1.872465         2.846592         3.069887
 H        -0.673524         1.618649         3.420582
 H        -0.806369         2.649579         0.758324
 H         0.043277        -0.309815         2.617567
 H        -0.829475        -1.588184         1.830273
