19
Iteration:   840
 O         0.421602         0.304789         0.160660
 C        -0.828402         0.321398         0.884291
 C        -2.140279         0.312017         0.057839
 C        -2.579284         1.427111         0.976852
 C        -2.639315         0.968080         2.517676
 C        -1.476825         1.966784         2.734609
 C        -1.125429         1.818676         1.260322
 O        -2.192289        -0.361600         2.620056
 C        -0.932253        -0.627610         2.057686
 H         0.884924        -0.534368         0.253098
 H        -1.901019         0.558310        -1.013377
 H        -2.635396        -0.611456        -0.166152
 H        -3.353447         2.137086         0.637105
 H        -3.496618         1.005505         3.140082
 H        -2.047570         2.974524         2.878814
 H        -0.628243         1.686150         3.451706
 H        -0.610612         2.551470         0.589400
 H        -0.069697        -0.604450         2.860885
 H        -1.051167        -1.597105         1.565990
