19
Iteration:  4892charge 0 multiplicity 1
 O         0.350398         0.200092         0.063366
 C        -0.793698         0.351237         0.835727
 C        -2.120878         0.135339         0.014052
 C        -2.675030         1.212710         0.862365
 C        -2.609151         1.040468         2.560274
 C        -1.593296         2.133377         2.641291
 C        -1.259778         1.787212         1.166670
 O        -2.025950        -0.281003         2.866238
 C        -0.786361        -0.532591         2.172695
 H         1.061761        -0.170672         0.611160
 H        -1.979393         0.563525        -0.953128
 H        -2.393970        -0.934926        -0.257085
 H        -3.373281         1.935721         0.648830
 H        -3.457893         1.221330         3.123467
 H        -2.212134         3.039975         2.721941
 H        -0.926158         2.169356         3.504104
 H        -0.866352         2.614955         0.554790
 H         0.062494        -0.185697         2.772114
 H        -0.946985        -1.605842         1.922599
