19
Iteration:  4988charge 0 multiplicity 1
 O         0.521937         0.237108         0.023628
 C        -0.843899         0.262743         0.821657
 C        -2.105075         0.136858         0.007156
 C        -2.725693         1.262261         0.955456
 C        -2.619412         1.013966         2.587767
 C        -1.572419         2.151552         2.567382
 C        -1.228307         1.722757         1.214962
 O        -2.069919        -0.275350         2.976924
 C        -0.913551        -0.555154         2.095068
 H         0.902756         1.072010         0.379187
 H        -1.951525         0.467977        -0.987501
 H        -2.495825        -0.915266        -0.154317
 H        -3.543226         1.858845         0.387899
 H        -3.572323         1.031832         3.014778
 H        -1.972737         3.158234         2.531351
 H        -0.640926         2.171827         3.208577
 H        -0.797464         2.500928         0.517989
 H        -0.086310        -0.235280         2.780627
 H        -0.871604        -1.558581         1.887233
