19
Iteration:  1090charge 0 multiplicity 1
 O         0.451045         0.052208         0.144243
 C        -0.726231         0.373594         0.812465
 C        -2.196941         0.255057         0.123817
 C        -2.634661         1.383931         0.984000
 C        -2.634352         0.937400         2.528708
 C        -1.544484         2.009367         2.710320
 C        -1.162416         1.802070         1.253142
 O        -2.172798        -0.378758         2.578516
 C        -0.868544        -0.425678         2.113302
 H         0.831044         0.925565        -0.113808
 H        -2.140134         0.474824        -1.007247
 H        -2.662405        -0.766993         0.271164
 H        -3.297239         2.214105         0.846613
 H        -3.604839         0.952220         3.035986
 H        -1.951417         3.022412         2.774416
 H        -0.877350         2.081513         3.561974
 H        -0.681819         2.728855         0.615721
 H        -0.107265        -0.035370         2.888678
 H        -0.647929        -1.528693         1.809335
