19
Iteration:  2395charge 0 multiplicity 1
 O         0.484442         0.259830         0.288702
 C        -0.843209         0.301135         0.859597
 C        -2.174141         0.211965        -0.074488
 C        -2.626938         1.266263         0.918052
 C        -2.571485         1.057225         2.478456
 C        -1.458338         2.084250         2.698380
 C        -1.219108         1.849271         1.209535
 O        -2.117344        -0.307498         2.807696
 C        -0.964528        -0.717188         2.083054
 H         0.434750         0.423015        -0.678964
 H        -2.057512         0.849721        -0.984963
 H        -2.838637        -0.670374        -0.106001
 H        -3.481244         1.919075         0.658283
 H        -3.407168         1.139741         3.088419
 H        -1.810896         3.159723         2.793522
 H        -0.616664         1.774543         3.327107
 H        -0.616219         2.549776         0.624631
 H        -0.072831        -0.503130         2.627179
 H        -1.009421        -1.630341         1.611089
