19
Iteration:  4101
 O         0.271266         0.264405         0.029222
 C        -0.771092         0.354893         0.920179
 C        -2.127511         0.001961         0.216257
 C        -2.621143         1.305131         0.829757
 C        -2.654139         1.015905         2.400902
 C        -1.594483         2.127546         2.609017
 C        -1.221564         1.850428         1.221056
 O        -2.017302        -0.330014         2.804332
 C        -0.746535        -0.475699         2.194217
 H         0.695339        -0.603347         0.040412
 H        -2.138097         0.186652        -0.917402
 H        -2.728964        -0.871202         0.446661
 H        -3.425093         1.995894         0.525959
 H        -3.612871         1.175876         2.919494
 H        -2.239370         3.032853         2.808617
 H        -0.782958         1.921099         3.393843
 H        -0.491417         2.612482         0.786890
 H         0.189152        -0.199771         2.593163
 H        -0.590952        -1.470238         1.927648
