19
Iteration:   100
 O         0.438248         0.072210         0.062529
 C        -0.768427         0.429084         0.846468
 C        -2.076990         0.296162         0.024635
 C        -2.662272         1.457420         0.939844
 C        -2.779146         1.030861         2.436221
 C        -1.602103         1.895504         2.895777
 C        -1.102423         1.785119         1.419523
 O        -2.108468        -0.333549         2.655367
 C        -0.831424        -0.462915         2.009600
 H         0.062025        -0.688384        -0.404115
 H        -1.855984         0.874895        -0.909106
 H        -2.558256        -0.724519        -0.240861
 H        -3.287602         2.233410         0.556908
 H        -3.701691         0.924046         3.062749
 H        -1.672569         2.939295         3.064410
 H        -1.108298         1.543783         3.802979
 H        -0.617931         2.646961         1.038582
 H         0.180873        -0.359263         2.628581
 H        -0.740683        -1.494820         1.607987
