19
Iteration:  2396
 O         0.479299         0.259376         0.288737
 C        -0.851761         0.310123         0.857312
 C        -2.172162         0.221485        -0.069098
 C        -2.627560         1.263697         0.916720
 C        -2.564396         1.059781         2.474503
 C        -1.456744         2.075867         2.697795
 C        -1.213173         1.847515         1.207637
 O        -2.114565        -0.308757         2.803534
 C        -0.969294        -0.717751         2.085579
 H         0.433656         0.440830        -0.666062
 H        -2.058701         0.808980        -0.962800
 H        -2.828060        -0.640932        -0.059186
 H        -3.458497         1.931825         0.611089
 H        -3.419973         1.086580         3.064242
 H        -1.841663         3.139155         2.788122
 H        -0.594725         1.769018         3.341974
 H        -0.645958         2.551425         0.591092
 H        -0.069420        -0.497963         2.667550
 H        -0.986673        -1.642865         1.675254
