19
Iteration:   885charge 0 multiplicity 1
 O         0.523041         0.250487         0.246915
 C        -0.726615         0.380985         0.879638
 C        -2.126038         0.251099         0.069629
 C        -2.652203         1.400291         0.974582
 C        -2.640093         0.969552         2.533361
 C        -1.422899         1.901363         2.720373
 C        -1.218378         1.830843         1.191830
 O        -2.237706        -0.336631         2.609191
 C        -0.929076        -0.533455         2.004821
 H         0.311135        -0.230137        -0.566828
 H        -2.241759         0.529660        -1.020362
 H        -2.687122        -0.653416         0.058763
 H        -3.475894         2.163745         0.840390
 H        -3.583356         0.967763         3.095688
 H        -1.620295         2.986835         3.098993
 H        -0.626230         1.408707         3.370281
 H        -0.713687         2.715745         0.826414
 H        -0.159569        -0.417762         2.859427
 H        -1.078632        -1.609330         1.808925
