19
Iteration:  1139charge 0 multiplicity 1
 O         0.492413         0.247858         0.278961
 C        -0.793022         0.378707         0.821464
 C        -2.062045         0.194004        -0.006309
 C        -2.671293         1.303048         1.024190
 C        -2.663504         1.045878         2.561527
 C        -1.418409         2.032727         2.675412
 C        -1.238352         1.807698         1.175700
 O        -2.166212        -0.324348         2.760583
 C        -0.963785        -0.667985         1.991000
 H         0.422997         0.648178        -0.588170
 H        -2.001431         0.759388        -0.937598
 H        -2.500927        -0.788357        -0.194060
 H        -3.403794         2.002944         0.541645
 H        -3.509215         1.220695         3.229559
 H        -1.670956         3.063003         3.019584
 H        -0.621285         1.839187         3.430586
 H        -0.810343         2.477895         0.372814
 H        -0.072336        -0.656441         2.565738
 H        -1.223484        -1.587650         1.583789
