19
Iteration:    64charge 0 multiplicity 1
 O         0.480646         0.189126         0.209193
 C        -0.792924         0.329184         0.857942
 C        -2.122296         0.314376        -0.029711
 C        -2.648693         1.459589         0.925334
 C        -2.588831         0.945429         2.559949
 C        -1.430965         2.159615         2.806536
 C        -1.207666         1.876490         1.334195
 O        -2.225176        -0.486680         2.639160
 C        -0.942877        -0.721280         2.010687
 H         0.302091         0.421563        -0.704492
 H        -1.768813         0.722292        -1.124636
 H        -2.665013        -0.630490        -0.192539
 H        -3.377759         2.163593         0.671745
 H        -3.469283         1.011527         3.150676
 H        -2.031256         3.120176         2.888238
 H        -0.621354         1.982601         3.539087
 H        -0.623453         2.626376         0.721433
 H        -0.115460        -0.367713         2.824226
 H        -0.805244        -1.771381         1.640251
