19
Iteration:  2851charge 0 multiplicity 1
 O         0.479039        -0.035752         0.106237
 C        -0.793915         0.368007         0.809592
 C        -2.167965         0.281739         0.009197
 C        -2.602824         1.371796         0.981174
 C        -2.672939         0.971343         2.560320
 C        -1.624652         2.043741         2.823195
 C        -1.126842         1.881349         1.279149
 O        -2.115665        -0.326277         2.633282
 C        -0.810931        -0.475737         2.114671
 H         0.535210         0.604627        -0.642389
 H        -2.124074         0.588718        -1.044169
 H        -2.731776        -0.664356        -0.109114
 H        -3.500541         1.892545         0.699478
 H        -3.689628         0.891496         2.938385
 H        -2.016024         3.042205         2.970745
 H        -0.918357         1.950270         3.625082
 H        -1.030445         2.752989         0.642961
 H         0.044857        -0.233179         2.825120
 H        -0.673269        -1.462722         1.896504
