19
Iteration:  1977
 O         0.497638         0.233824         0.310708
 C        -0.794496         0.391415         0.765646
 C        -2.090313         0.210236         0.002727
 C        -2.727876         1.279825         0.991002
 C        -2.608156         1.050456         2.521489
 C        -1.483822         2.001980         2.713889
 C        -1.201427         1.817772         1.116503
 O        -2.131795        -0.309781         2.835870
 C        -0.952171        -0.619664         1.977724
 H         0.406973         0.638499        -0.573544
 H        -2.037633         0.714313        -0.961617
 H        -2.555694        -0.727739        -0.043498
 H        -3.516615         1.818036         0.589917
 H        -3.414437         1.336255         3.096498
 H        -1.770114         3.048150         3.094858
 H        -0.619734         1.691620         3.331879
 H        -0.713193         2.418405         0.330805
 H        -0.122087        -0.834289         2.740630
 H        -1.107302        -1.585017         1.554091
