19
Iteration:   574
 O         0.493600         0.039219         0.300579
 C        -0.793536         0.434796         0.795807
 C        -2.129819         0.309286        -0.027493
 C        -2.677319         1.356304         0.938322
 C        -2.610692         0.946012         2.473451
 C        -1.470837         1.992720         2.755132
 C        -1.271134         1.889343         1.319894
 O        -2.111274        -0.301396         2.745834
 C        -0.963633        -0.577594         1.936836
 H         0.957433         0.686995        -0.227376
 H        -2.146587         0.430109        -1.102738
 H        -2.575497        -0.706446         0.018872
 H        -3.438378         2.024082         0.708807
 H        -3.568606         1.167396         2.912492
 H        -1.724777         3.041760         3.166936
 H        -0.598193         1.765125         3.503044
 H        -0.872367         2.556747         0.499263
 H        -0.015343        -0.508891         2.498909
 H        -1.029554        -1.590491         1.544800
