19
Iteration:  3420
 O         0.496155         0.036976         0.133851
 C        -0.774761         0.347701         0.762720
 C        -2.154255         0.155690         0.082140
 C        -2.651270         1.360104         1.001153
 C        -2.752327         0.970815         2.503274
 C        -1.500216         2.001599         2.691073
 C        -1.190712         1.808162         1.216464
 O        -2.150442        -0.315352         2.696147
 C        -0.808552        -0.364866         2.114082
 H         0.798771         0.958731         0.064332
 H        -2.062127         0.627962        -0.938073
 H        -2.816298        -0.797040        -0.079282
 H        -3.536296         1.916240         0.741736
 H        -3.605374         1.163155         3.099701
 H        -1.977699         2.980380         2.862020
 H        -0.835999         1.705673         3.539750
 H        -0.729293         2.638541         0.661602
 H        -0.170728         0.131608         2.832342
 H        -0.507080        -1.347811         2.041627
