19
Iteration:  1907
 O         0.376297        -0.078864         0.073915
 C        -0.716482         0.365252         0.836714
 C        -2.092507         0.265829         0.083215
 C        -2.692906         1.359803         0.898235
 C        -2.635324         0.988196         2.530604
 C        -1.591014         2.063301         2.846040
 C        -1.160136         1.902577         1.250557
 O        -2.183085        -0.329126         2.610272
 C        -0.763899        -0.451038         2.113806
 H         0.460252         0.748542        -0.449419
 H        -1.869166         0.591136        -0.942535
 H        -2.428144        -0.821122         0.119204
 H        -3.622455         2.004177         0.625048
 H        -3.647841         0.811652         3.094903
 H        -2.129400         3.062386         3.091752
 H        -1.031287         1.803331         3.792962
 H        -0.570478         2.651500         0.781293
 H        -0.002108         0.121057         2.648688
 H        -0.323565        -1.496375         2.135004
