19
Iteration:  1607
 O         0.424504        -0.001160         0.118188
 C        -0.785922         0.313166         0.812721
 C        -2.115309         0.233316         0.122973
 C        -2.606733         1.354297         0.969994
 C        -2.651542         0.989884         2.482346
 C        -1.540248         1.999976         2.720278
 C        -1.226464         1.916012         1.255696
 O        -2.174522        -0.338092         2.579327
 C        -0.764150        -0.430534         2.195965
 H         0.474507         0.720225        -0.519850
 H        -2.082108         0.648216        -0.934172
 H        -2.543659        -0.777221         0.120989
 H        -3.487603         1.971007         0.609380
 H        -3.622221         1.046533         3.079332
 H        -1.921422         3.036495         2.992342
 H        -0.996518         2.114265         3.683217
 H        -0.815887         2.663741         0.615220
 H        -0.080613        -0.076791         2.909045
 H        -0.535824        -1.557529         2.120292
