19
Iteration:  4945charge 0 multiplicity 1
 O         0.303835         0.091499         0.095402
 C        -0.789977         0.405610         0.866668
 C        -2.070948         0.077956         0.200713
 C        -2.676847         1.331790         0.880016
 C        -2.659393         0.959940         2.476742
 C        -1.544822         2.118013         2.662436
 C        -1.282565         1.938681         1.135929
 O        -2.049547        -0.370401         2.701791
 C        -0.774380        -0.420998         2.121380
 H         1.137179         0.163187         0.592432
 H        -2.042889         0.053519        -0.865333
 H        -2.602153        -0.902540         0.443505
 H        -3.680704         1.855628         0.588030
 H        -3.484754         1.079510         3.085998
 H        -1.932727         3.100128         2.940049
 H        -0.731742         1.797182         3.373507
 H        -0.582649         2.704230         0.708960
 H         0.041935         0.022980         2.772350
 H        -0.507530        -1.458406         2.028982
