19
Iteration:  2088charge 0 multiplicity 1
 O         0.512108         0.196023         0.261247
 C        -0.786848         0.335717         0.846234
 C        -2.121747         0.184397         0.043772
 C        -2.692716         1.360945         0.999343
 C        -2.621790         1.046394         2.557866
 C        -1.536217         2.103220         2.688007
 C        -1.211298         1.751977         1.127812
 O        -2.145854        -0.326923         2.750079
 C        -0.909855        -0.619399         2.009839
 H         0.415722         0.465371        -0.672439
 H        -2.033096         0.551275        -0.989564
 H        -2.705480        -0.732263        -0.037922
 H        -3.345173         2.178624         0.639173
 H        -3.509762         0.980443         3.184480
 H        -1.650364         3.204178         2.866246
 H        -0.722378         1.929127         3.462643
 H        -0.844665         2.533981         0.413179
 H        -0.081694        -0.496382         2.655687
 H        -0.714780        -1.596125         1.594167
