19
Iteration:  2939
 O         0.531584         0.220085         0.262423
 C        -0.834327         0.340072         0.808950
 C        -2.232826         0.214218        -0.015551
 C        -2.643054         1.329035         0.972996
 C        -2.628412         0.950010         2.512687
 C        -1.478547         2.107586         2.696520
 C        -1.171493         1.745216         1.229530
 O        -2.098458        -0.261037         2.827983
 C        -0.965566        -0.670712         1.905227
 H         0.712589         1.129971        -0.077330
 H        -2.051563         0.806124        -0.998874
 H        -2.521127        -0.876526         0.028303
 H        -3.410312         2.017236         0.572955
 H        -3.596939         1.124804         3.017631
 H        -2.130417         2.973132         2.862639
 H        -0.656522         2.050917         3.378756
 H        -0.649565         2.583143         0.736145
 H        -0.019635        -0.758737         2.680854
 H        -1.050833        -1.698125         1.595837
