19
Iteration:  4876
 O         0.401178         0.244122         0.093569
 C        -0.795357         0.322501         0.875332
 C        -2.081961         0.143788         0.078546
 C        -2.698861         1.271913         0.952483
 C        -2.647497         0.932887         2.475123
 C        -1.564257         2.125078         2.553683
 C        -1.248160         1.866618         1.129105
 O        -1.996322        -0.222209         2.958674
 C        -0.891161        -0.585980         2.091393
 H         1.213176         0.148312         0.599332
 H        -1.904243         0.337859        -1.057012
 H        -2.646325        -0.781332         0.132598
 H        -3.749560         1.762855         0.601208
 H        -3.702701         0.809726         2.990356
 H        -2.029337         3.125991         2.657288
 H        -0.703017         1.908461         3.255779
 H        -0.745699         2.471667         0.351630
 H         0.019157        -0.616499         2.735907
 H        -0.998413        -1.544390         1.595738
