19
Iteration:  4932
 O         0.362109         0.034897         0.065206
 C        -0.762320         0.417518         0.829536
 C        -2.158900         0.126372         0.140423
 C        -2.721197         1.340319         0.960577
 C        -2.628541         0.979896         2.514045
 C        -1.597232         2.008521         2.652705
 C        -1.202948         1.955749         1.117906
 O        -2.099464        -0.357455         2.687847
 C        -0.684385        -0.348392         2.205602
 H         1.067363        -0.187058         0.713136
 H        -2.157847         0.259749        -0.969526
 H        -2.513571        -0.801027         0.590433
 H        -3.588943         1.839465         0.285484
 H        -3.553240         0.902407         3.143531
 H        -2.116059         2.940676         2.872751
 H        -0.824977         1.886503         3.482522
 H        -1.005128         2.752252         0.356523
 H         0.025491         0.022523         3.019925
 H        -0.369061        -1.329224         1.957904
