19
Iteration:  3243charge 0 multiplicity 1
 O         0.426989         0.190646         0.195652
 C        -0.834736         0.307124         0.897977
 C        -2.157549         0.200438        -0.032444
 C        -2.637461         1.438708         0.887027
 C        -2.627506         0.891310         2.381720
 C        -1.508793         1.983003         2.718057
 C        -1.210385         1.809052         1.233664
 O        -2.129527        -0.259930         2.796906
 C        -0.848034        -0.589610         2.120784
 H         0.697407         1.064820        -0.108241
 H        -1.971244         0.535180        -1.021400
 H        -2.777224        -0.638467         0.161624
 H        -3.402409         2.227670         0.559186
 H        -3.600869         0.982949         2.926811
 H        -1.736446         3.031434         2.979818
 H        -0.593525         1.845050         3.365023
 H        -0.585104         2.530541         0.668355
 H        -0.016801        -0.492774         2.913297
 H        -0.780913        -1.577884         1.756592
