19
Iteration:  3186charge 0 multiplicity 1
 O         0.499492         0.123291         0.265367
 C        -0.803109         0.374195         0.834701
 C        -2.100685         0.264317         0.040555
 C        -2.696457         1.392852         0.960462
 C        -2.643133         0.989717         2.501466
 C        -1.527057         1.989732         2.713292
 C        -1.211263         1.898892         1.146300
 O        -2.186863        -0.411049         2.699935
 C        -0.814270        -0.484539         2.087058
 H         0.486931        -0.331644        -0.602692
 H        -2.014780         0.647561        -0.945710
 H        -2.667503        -0.675591        -0.038800
 H        -3.541269         1.941566         0.558199
 H        -3.513715         0.939595         3.181024
 H        -1.855343         3.011492         2.839387
 H        -0.736029         1.643285         3.409703
 H        -0.738575         2.774555         0.688510
 H        -0.047860        -0.090082         2.824799
 H        -0.719208        -1.473658         1.801169
