19
Iteration:  1150
 O         0.539955         0.204257         0.265740
 C        -0.774042         0.333237         0.788163
 C        -2.104398         0.280339         0.022938
 C        -2.682631         1.297729         0.992038
 C        -2.631881         1.018065         2.603730
 C        -1.491544         2.101336         2.669733
 C        -1.165265         1.820698         1.176093
 O        -2.183399        -0.372211         2.841442
 C        -0.984227        -0.627627         1.920695
 H         0.541818         0.398932        -0.684040
 H        -2.062536         0.776909        -0.956480
 H        -2.449602        -0.746809        -0.118577
 H        -3.532940         2.011833         0.774221
 H        -3.588841         1.066518         3.112847
 H        -1.932465         3.104518         2.601504
 H        -0.729844         1.819442         3.425576
 H        -0.729160         2.703405         0.556018
 H        -0.125651        -0.663635         2.540834
 H        -0.982426        -1.585971         1.527618
