19
Iteration:  2092
 O         0.528379         0.196660         0.272514
 C        -0.777981         0.298694         0.828061
 C        -2.127470         0.174769         0.015305
 C        -2.706164         1.361427         1.012082
 C        -2.639868         1.044531         2.558806
 C        -1.507002         2.122138         2.682060
 C        -1.200976         1.785465         1.134963
 O        -2.121130        -0.332544         2.760879
 C        -0.959569        -0.612476         1.998318
 H         0.552269         0.432470        -0.667996
 H        -2.026811         0.622711        -0.992289
 H        -2.771771        -0.746508        -0.009868
 H        -3.453027         2.160994         0.673323
 H        -3.523510         0.954323         3.268872
 H        -1.783331         3.130129         2.859411
 H        -0.733747         1.887392         3.403196
 H        -0.893364         2.598487         0.425016
 H        -0.055774        -0.451622         2.728466
 H        -0.693902        -1.625672         1.592943
