19
Iteration:  2582charge 0 multiplicity 1
 O         0.429067         0.007534         0.047018
 C        -0.734035         0.374261         0.772676
 C        -2.104064         0.242826         0.062188
 C        -2.587525         1.316162         0.973860
 C        -2.743335         1.029466         2.526992
 C        -1.620331         2.068574         2.791354
 C        -1.129418         1.836107         1.280317
 O        -2.173437        -0.320262         2.719193
 C        -0.770069        -0.479513         2.118187
 H         0.487374         0.721692        -0.596192
 H        -1.971020         0.585222        -1.048448
 H        -2.488466        -0.859139         0.178180
 H        -3.431793         1.999256         0.659992
 H        -3.762040         0.941647         2.988715
 H        -2.091648         3.069870         2.734147
 H        -0.999003         1.905028         3.719647
 H        -0.647430         2.585856         0.637375
 H         0.047250        -0.138973         2.843771
 H        -0.863168        -1.582775         1.878049
