19
Iteration:  2446charge 0 multiplicity 1
 O         0.412663        -0.035845         0.088017
 C        -0.706155         0.307880         0.777307
 C        -2.095822         0.180105         0.114509
 C        -2.641301         1.398933         1.007691
 C        -2.661121         0.941681         2.457063
 C        -1.529731         2.062746         2.846623
 C        -1.229098         1.893330         1.225040
 O        -2.204373        -0.293414         2.564008
 C        -0.819222        -0.392096         2.148817
 H         0.926863         0.736331        -0.248211
 H        -2.180358         0.545548        -0.963646
 H        -2.453429        -0.848355         0.342071
 H        -3.513364         2.047633         0.896051
 H        -3.567544         0.986681         3.174830
 H        -2.034317         3.002412         2.958755
 H        -0.798293         1.820380         3.582208
 H        -0.812631         2.701472         0.563381
 H        -0.027659         0.051938         2.835857
 H        -0.583165        -1.609886         2.053081
