19
Iteration:  4715charge 0 multiplicity 1
 O         0.536989         0.247602         0.235334
 C        -0.835611         0.375568         0.767065
 C        -2.125581         0.089563         0.023981
 C        -2.813306         1.154995         0.971674
 C        -2.590038         1.014174         2.531594
 C        -1.446751         2.056276         2.582443
 C        -1.388327         1.873915         1.084022
 O        -2.089321        -0.292258         2.832520
 C        -0.815595        -0.432974         2.092891
 H         0.901359        -0.548194         0.672947
 H        -2.156167         0.507461        -1.007605
 H        -2.714289        -0.836921         0.241540
 H        -3.634043         1.776482         0.681539
 H        -3.393002         1.256927         3.175452
 H        -1.766253         3.040451         2.865380
 H        -0.467163         1.740807         3.013382
 H        -1.029425         2.728172         0.432294
 H        -0.021936        -0.005064         2.797207
 H        -0.597528        -1.632749         1.958255
