19
Iteration:  4333charge 0 multiplicity 1
 O         0.420804         0.225793         0.026968
 C        -0.721539         0.321690         0.835631
 C        -2.177023         0.055835         0.163688
 C        -2.686690         1.217361         0.877526
 C        -2.619561         0.986556         2.530847
 C        -1.615980         2.192633         2.647722
 C        -1.264212         1.768651         1.144452
 O        -2.041278        -0.233725         2.864832
 C        -0.850328        -0.512202         2.080469
 H         1.132798         0.510431         0.675750
 H        -2.170800         0.225928        -0.914575
 H        -2.572693        -0.998852         0.471845
 H        -3.445988         1.906730         0.443069
 H        -3.539400         1.255094         3.062183
 H        -2.030578         3.252978         2.805795
 H        -0.856427         1.894139         3.501049
 H        -0.612042         2.344441         0.319446
 H         0.031949        -0.195410         2.716141
 H        -0.685437        -1.547585         1.843315
