19
Iteration:  3515charge 0 multiplicity 1
 O         0.437572         0.168650         0.250691
 C        -0.763574         0.325387         0.891208
 C        -2.182998         0.231873        -0.052023
 C        -2.711783         1.293599         0.941402
 C        -2.605019         0.939776         2.456379
 C        -1.505846         2.029856         2.607033
 C        -1.204821         1.872901         1.137176
 O        -2.146299        -0.365476         2.805729
 C        -0.798886        -0.393518         2.198329
 H         0.375148        -0.089959        -0.675608
 H        -2.130575         0.479834        -1.084531
 H        -2.566427        -0.804795        -0.099990
 H        -3.645465         1.907338         0.834022
 H        -3.489092         1.083864         3.036364
 H        -1.923558         3.035228         2.801587
 H        -0.707904         1.842634         3.343068
 H        -0.744820         2.539566         0.451792
 H         0.096999         0.010957         2.863861
 H        -0.547294        -1.567989         2.041909
