19
Iteration:  4173
 O         0.448466         0.170449         0.293860
 C        -0.898757         0.449937         0.862103
 C        -2.212923         0.043545         0.118469
 C        -2.721330         1.278237         0.941731
 C        -2.548762         0.949102         2.467752
 C        -1.518546         2.109856         2.518997
 C        -1.309800         1.975054         1.067391
 O        -1.983017        -0.350557         2.838456
 C        -0.754943        -0.483207         2.077233
 H         0.412099        -0.493324        -0.430445
 H        -2.090791         0.382796        -0.885146
 H        -2.698258        -0.946411         0.299687
 H        -3.614792         1.804609         0.627151
 H        -3.460253         1.221030         2.992724
 H        -2.047829         3.005002         2.746591
 H        -0.682262         1.906375         3.097431
 H        -1.136768         2.877045         0.557407
 H         0.100342        -0.243730         2.893335
 H        -0.539749        -1.611988         1.908379
