19
Iteration:  1761charge 0 multiplicity 1
 O         0.416202        -0.017189        -0.030274
 C        -0.713476         0.384714         0.803019
 C        -2.045483         0.227615         0.064168
 C        -2.581370         1.403059         1.006021
 C        -2.657377         0.959813         2.516084
 C        -1.670030         2.168354         2.795513
 C        -1.189512         1.809240         1.288913
 O        -2.172973        -0.368596         2.724743
 C        -0.835691        -0.513682         2.146774
 H         0.599523         0.811488        -0.539918
 H        -2.066009         0.384075        -1.048082
 H        -2.536571        -0.703276         0.331498
 H        -3.264900         2.171484         0.606175
 H        -3.651233         1.045652         2.848311
 H        -2.160273         3.095903         2.641216
 H        -1.068055         2.121976         3.718528
 H        -0.767232         2.680719         0.715473
 H         0.118623        -0.196043         2.812581
 H        -0.677392        -1.635088         1.917204
