19
Iteration:  2636charge 0 multiplicity 1
 O         0.475290         0.154058         0.227855
 C        -0.836614         0.368773         0.832273
 C        -2.195141         0.196666         0.030605
 C        -2.673394         1.345040         0.914410
 C        -2.625998         1.005871         2.541775
 C        -1.422554         2.031796         2.657360
 C        -1.248884         1.803945         1.202647
 O        -2.116631        -0.374352         2.734779
 C        -0.922181        -0.507806         2.056817
 H         0.821628         1.051002         0.124353
 H        -2.005722         0.661168        -0.963942
 H        -2.607608        -0.822694         0.005131
 H        -3.420136         2.133433         0.662148
 H        -3.547875         1.006506         3.116771
 H        -1.885001         2.976875         2.824115
 H        -0.608383         1.865245         3.345670
 H        -0.587962         2.416263         0.571557
 H        -0.099141        -0.225567         2.705791
 H        -0.603099        -1.590643         1.937688
