19
Iteration:  3575charge 0 multiplicity 1
 O         0.477357         0.127300         0.133737
 C        -0.720427         0.296925         0.784577
 C        -2.216142         0.140489         0.111240
 C        -2.661662         1.299662         0.895609
 C        -2.680382         1.002719         2.498999
 C        -1.651368         2.088948         2.691555
 C        -1.158270         1.788200         1.215770
 O        -2.049268        -0.273041         2.834155
 C        -0.819799        -0.502177         2.044989
 H         0.796950         1.057028         0.135384
 H        -2.309573         0.387214        -0.990533
 H        -2.666097        -0.796825         0.460942
 H        -3.295404         2.077247         0.462646
 H        -3.676768         1.244934         2.997611
 H        -2.115650         3.059914         2.531124
 H        -0.998995         2.130650         3.561207
 H        -0.726347         2.411440         0.364613
 H        -0.025576        -0.233030         2.787319
 H        -0.827125        -1.507041         1.853842
