19
Iteration:  1265
 O         0.511619         0.141943         0.338915
 C        -0.811748         0.354504         0.833567
 C        -2.153590         0.242241        -0.005749
 C        -2.682250         1.334558         0.944040
 C        -2.621086         0.988555         2.502473
 C        -1.456787         2.108028         2.699083
 C        -1.259613         1.876892         1.151001
 O        -2.067074        -0.334094         2.805931
 C        -0.992345        -0.636239         1.946784
 H         0.559816         0.882409        -0.296645
 H        -2.240228         0.494448        -1.037475
 H        -2.604823        -0.743330         0.044850
 H        -3.456883         1.978129         0.546072
 H        -3.571324         1.169871         3.041015
 H        -1.788489         3.040998         3.183390
 H        -0.624058         1.670219         3.251657
 H        -0.743578         2.520514         0.512038
 H         0.004856        -0.576651         2.503306
 H        -0.814472        -1.700746         1.651197
