19
Iteration:  2668charge 0 multiplicity 1
 O         0.520874         0.171892         0.276031
 C        -0.837811         0.455416         0.824258
 C        -2.168229         0.174709         0.059598
 C        -2.683027         1.279799         1.008807
 C        -2.629198         1.020201         2.504400
 C        -1.369891         2.010180         2.648087
 C        -1.271348         1.859269         1.138391
 O        -2.185072        -0.412186         2.705037
 C        -0.953747        -0.516799         2.085838
 H         0.843318         0.807394        -0.382759
 H        -2.181032         0.575807        -0.934441
 H        -2.351508        -0.845702        -0.116752
 H        -3.490266         2.010998         0.793974
 H        -3.450268         1.294366         3.129957
 H        -1.526645         3.039543         2.942885
 H        -0.486390         1.740186         3.186038
 H        -0.675178         2.551682         0.504681
 H        -0.175254        -0.201097         2.753994
 H        -0.824478        -1.642760         1.760009
