19
Iteration:   408charge 0 multiplicity 1
 O         0.360966         0.096132         0.083344
 C        -0.728502         0.401482         0.904773
 C        -2.110784         0.236355         0.076117
 C        -2.634193         1.398142         0.964860
 C        -2.684669         1.010090         2.454077
 C        -1.553094         1.952330         2.779324
 C        -1.157677         1.880987         1.316172
 O        -2.146600        -0.321442         2.596327
 C        -0.850504        -0.551246         2.041996
 H         1.176527         0.407141         0.492654
 H        -1.916879         0.567000        -0.941473
 H        -2.592487        -0.821860         0.026794
 H        -3.206432         2.187451         0.665420
 H        -3.700023         0.948156         2.932817
 H        -1.775509         2.973740         3.127382
 H        -0.745384         1.664594         3.577405
 H        -0.796997         2.708183         0.772927
 H        -0.156384        -0.543574         2.904464
 H        -0.986237        -1.538832         1.670591
