19
Iteration:   693charge 0 multiplicity 1
 O         0.397157         0.086860         0.192432
 C        -0.864151         0.404331         0.863853
 C        -2.035068         0.433371        -0.036421
 C        -2.588350         1.384786         0.974765
 C        -2.691025         0.863445         2.526931
 C        -1.490727         2.043810         2.716962
 C        -1.132068         1.824233         1.305443
 O        -2.150602        -0.416459         2.706656
 C        -0.917389        -0.524631         2.076867
 H         0.308834        -0.283804        -0.723099
 H        -1.721895         0.903652        -0.953398
 H        -2.495433        -0.518653        -0.460309
 H        -3.419054         2.008948         0.664005
 H        -3.768774         0.986646         3.006252
 H        -2.039352         3.018975         2.763647
 H        -0.687001         2.148942         3.553420
 H        -0.684863         2.602656         0.673856
 H         0.019866        -0.281622         2.708386
 H        -0.730746        -1.584308         1.811221
