19
Iteration:  4052
 O         0.504324         0.180419         0.156641
 C        -0.787852         0.398360         0.775655
 C        -2.165279         0.131755         0.001230
 C        -2.740777         1.171274         0.974029
 C        -2.627269         0.971768         2.632748
 C        -1.523234         2.103124         2.645648
 C        -1.240432         1.827660         1.040409
 O        -2.106947        -0.293248         2.841021
 C        -0.841075        -0.389950         2.186308
 H         0.577265        -0.673396        -0.336907
 H        -2.098520         0.548751        -0.999163
 H        -2.544667        -0.939937        -0.039865
 H        -3.639905         1.777286         0.716225
 H        -3.503368         1.169097         3.253285
 H        -1.895360         3.116242         2.677991
 H        -0.733677         1.898990         3.348475
 H        -0.945905         2.541735         0.308302
 H        -0.044723         0.066288         2.668313
 H        -0.315312        -1.378294         1.936618
