19
Iteration:  2580
 O         0.424619         0.014696         0.065278
 C        -0.731790         0.369387         0.789198
 C        -2.122437         0.251072         0.074224
 C        -2.569701         1.306739         0.971400
 C        -2.739736         1.027576         2.534191
 C        -1.596989         2.049771         2.785672
 C        -1.142986         1.832564         1.260010
 O        -2.164990        -0.313631         2.709813
 C        -0.775516        -0.464243         2.121511
 H         0.469391         0.705980        -0.625103
 H        -2.028992         0.639011        -0.963347
 H        -2.515220        -0.791352         0.095955
 H        -3.390642         1.929931         0.592224
 H        -3.735346         0.915086         2.886299
 H        -2.137191         2.997486         2.787974
 H        -1.038397         1.911306         3.664588
 H        -0.622135         2.572742         0.626059
 H        -0.027212        -0.092987         2.809776
 H        -0.872348        -1.599482         1.853179
