19
Iteration:  3601charge 0 multiplicity 1
 O         0.343285         0.163062         0.178500
 C        -0.797663         0.326189         0.901300
 C        -2.121535         0.111410        -0.011984
 C        -2.687451         1.268033         0.868819
 C        -2.580629         0.953582         2.507582
 C        -1.504083         2.093788         2.636904
 C        -1.273747         1.907919         1.142296
 O        -2.040582        -0.299697         2.824224
 C        -0.871636        -0.529124         2.166710
 H         0.851260         0.989421         0.312038
 H        -1.876983         0.743866        -0.844980
 H        -2.469666        -0.897376        -0.251723
 H        -3.546029         1.895635         0.544583
 H        -3.524775         1.163895         3.002091
 H        -1.907230         3.156369         2.726922
 H        -0.576253         1.950220         3.288008
 H        -0.751892         2.471445         0.342900
 H        -0.111480        -0.351173         2.835218
 H        -0.790936        -1.638274         2.026949
