19
Iteration:  2069charge 0 multiplicity 1
 O         0.376206         0.174543         0.147512
 C        -0.776666         0.312879         0.880633
 C        -2.100148         0.153332         0.093861
 C        -2.640759         1.350136         0.925819
 C        -2.637624         0.994710         2.424717
 C        -1.479727         2.031939         2.699571
 C        -1.129505         1.884645         1.277815
 O        -2.171356        -0.303551         2.699846
 C        -0.869866        -0.534802         2.111665
 H         0.401529         0.572675        -0.747858
 H        -2.017732         0.470071        -0.962193
 H        -2.701417        -0.805078         0.238185
 H        -3.622371         1.848091         0.553433
 H        -3.603106         1.082322         3.050126
 H        -2.028469         2.894659         2.964070
 H        -0.707911         1.931329         3.480218
 H        -0.557543         2.747649         0.765458
 H         0.021153        -0.433391         2.860524
 H        -0.747258        -1.672694         1.833791
