19
Iteration:  3611charge 0 multiplicity 1
 O         0.371104         0.138549         0.164452
 C        -0.821999         0.364145         0.850987
 C        -2.022627         0.197339         0.041274
 C        -2.736313         1.150804         0.911245
 C        -2.569445         1.021048         2.507420
 C        -1.449828         2.102741         2.641934
 C        -1.292047         1.841627         1.087378
 O        -2.149641        -0.307250         2.824052
 C        -0.829697        -0.488733         2.163755
 H         0.978370         0.865438         0.381369
 H        -1.859313         0.545404        -0.989856
 H        -2.557992        -0.729166        -0.141215
 H        -3.543633         1.754744         0.482309
 H        -3.452594         1.178024         3.184819
 H        -2.020899         2.962395         3.103306
 H        -0.544715         1.881978         3.292373
 H        -0.958092         2.651717         0.368478
 H        -0.067351        -0.347152         2.862762
 H        -0.756022        -1.451615         1.754350
