19
Iteration:  1621
 O         0.400910        -0.015642         0.050581
 C        -0.713010         0.354309         0.876870
 C        -2.164854         0.245412        -0.005677
 C        -2.693385         1.372408         0.942809
 C        -2.650492         0.968902         2.469739
 C        -1.628844         2.097916         2.810687
 C        -1.112737         1.800055         1.279836
 O        -2.115222        -0.355515         2.642533
 C        -0.782505        -0.421541         2.228744
 H         0.489669         0.576352        -0.718192
 H        -1.945832         0.598837        -1.004385
 H        -2.743781        -0.651211         0.000523
 H        -3.393917         2.188893         0.625007
 H        -3.563189         0.930957         2.982830
 H        -2.294270         3.025341         2.715410
 H        -0.840252         1.876823         3.590290
 H        -0.592227         2.581125         0.844014
 H        -0.104557         0.114110         3.004702
 H        -0.528932        -1.438512         2.192616
