19
Iteration:  1678charge 0 multiplicity 1
 O         0.520641         0.191055         0.305107
 C        -0.765011         0.368007         0.791947
 C        -2.085665         0.191065         0.074553
 C        -2.725067         1.309005         1.032558
 C        -2.635297         1.048169         2.544348
 C        -1.423390         2.090478         2.641687
 C        -1.244628         1.840367         1.159315
 O        -2.196384        -0.369694         2.744155
 C        -0.919488        -0.610449         1.963170
 H         0.525943         0.501105        -0.616928
 H        -2.122652         0.548743        -0.946635
 H        -2.571502        -0.822811         0.059826
 H        -3.397360         1.908626         0.436523
 H        -3.518775         1.109391         3.188054
 H        -1.845863         3.065560         3.050953
 H        -0.538697         1.991033         3.301963
 H        -0.954798         2.707688         0.489975
 H         0.011444        -0.490911         2.636761
 H        -1.089040        -1.616953         1.691062
