19
Iteration:  2209charge 0 multiplicity 1
 O         0.398464         0.085528         0.202134
 C        -0.727029         0.356206         0.829482
 C        -2.102474         0.162369         0.081611
 C        -2.589438         1.382986         0.964756
 C        -2.692206         0.960010         2.520471
 C        -1.517280         2.077372         2.683649
 C        -1.230642         1.880831         1.178650
 O        -2.133516        -0.303517         2.722826
 C        -0.854352        -0.540824         2.078529
 H         0.405162         0.578004        -0.662008
 H        -2.067828         0.693790        -0.897560
 H        -2.623543        -0.816614         0.016700
 H        -3.450003         2.046813         0.636077
 H        -3.758117         0.959698         2.828003
 H        -1.887050         3.164466         3.113746
 H        -0.584771         1.714099         3.313793
 H        -0.777184         2.679436         0.545858
 H        -0.132532        -0.388816         3.024430
 H        -0.698322        -1.608928         1.801612
