19
Iteration:   640charge 0 multiplicity 1
 O         0.382078         0.092213         0.161891
 C        -0.784157         0.439101         0.876438
 C        -2.133365         0.198630         0.098702
 C        -2.568738         1.406061         0.961696
 C        -2.648231         1.066127         2.472429
 C        -1.560727         1.972090         2.783430
 C        -1.122701         1.814195         1.268037
 O        -2.192562        -0.362077         2.563711
 C        -0.855807        -0.561202         2.051557
 H         0.687273         0.842097        -0.410550
 H        -1.969896         0.371523        -0.951438
 H        -2.528859        -0.770310         0.366280
 H        -3.202486         2.182818         0.645235
 H        -3.560722         1.110049         3.041214
 H        -1.777916         2.983371         3.270259
 H        -0.953482         1.633942         3.727447
 H        -0.666274         2.644685         0.669092
 H        -0.087055        -0.267964         2.807050
 H        -0.790451        -1.552774         1.633572
