19
Iteration:   976
 O         0.406518         0.213713         0.128023
 C        -0.751901         0.421991         0.813829
 C        -2.150615         0.213777         0.088504
 C        -2.607452         1.417653         0.920266
 C        -2.609609         0.934133         2.480290
 C        -1.390871         1.969069         2.763475
 C        -1.204727         1.894669         1.197378
 O        -2.270310        -0.431090         2.684400
 C        -0.910656        -0.521567         2.066905
 H         1.130449         0.294426         0.811707
 H        -2.229861         0.260646        -0.958528
 H        -2.538924        -0.801006         0.276113
 H        -3.435969         2.179021         0.594242
 H        -3.600881         1.099181         2.982325
 H        -1.636345         2.918768         3.177405
 H        -0.566576         1.691453         3.401014
 H        -0.743610         2.645038         0.668624
 H        -0.116588        -0.301146         2.907775
 H        -0.836102        -1.579200         1.723811
