19
Iteration:  4231
 O         0.386482         0.186545        -0.008464
 C        -0.790130         0.387923         0.869844
 C        -2.077548         0.077548         0.177250
 C        -2.644543         1.278025         0.883076
 C        -2.605863         0.960516         2.459764
 C        -1.643048         2.177927         2.641562
 C        -1.225115         1.832847         1.164093
 O        -2.053319        -0.312206         2.830976
 C        -0.774766        -0.495957         2.265313
 H        -0.101750         0.027279        -0.815428
 H        -1.992638         0.132878        -0.959692
 H        -2.578081        -0.811685         0.397192
 H        -3.545241         1.762083         0.467258
 H        -3.595854         1.145863         2.935527
 H        -2.167271         3.064015         3.020063
 H        -0.839435         1.963536         3.378481
 H        -0.691345         2.544994         0.529162
 H        -0.003815         0.020985         2.906739
 H        -0.574464        -1.577160         2.012907
