19
Iteration:  3330charge 0 multiplicity 1
 O         0.426213         0.239441         0.154996
 C        -0.801414         0.362063         0.789802
 C        -2.098110         0.214660         0.023556
 C        -2.653669         1.323245         0.975597
 C        -2.666793         1.034729         2.471148
 C        -1.515657         1.946226         2.709679
 C        -1.176877         1.812104         1.198258
 O        -2.127946        -0.332454         2.750086
 C        -0.882842        -0.506378         2.104839
 H         1.017356        -0.356176         0.624633
 H        -2.243572         0.530698        -1.052255
 H        -2.790352        -0.807293         0.005307
 H        -3.382508         2.043528         0.506189
 H        -3.566984         1.056166         3.128162
 H        -1.761631         3.051844         2.841606
 H        -0.808038         1.606904         3.562180
 H        -0.755709         2.546154         0.496519
 H        -0.192704        -0.033322         2.848053
 H        -0.642528        -1.500468         1.841656
