19
Iteration:  2410charge 0 multiplicity 1
 O         0.415757         0.200187         0.280111
 C        -0.806426         0.344253         0.818955
 C        -2.131014         0.235752         0.059678
 C        -2.648864         1.423969         0.928379
 C        -2.602093         0.918224         2.483649
 C        -1.437913         2.019784         2.650094
 C        -1.174911         1.807894         1.160159
 O        -2.156495        -0.332722         2.759744
 C        -0.907592        -0.580546         2.083715
 H         0.423255         0.688802        -0.571839
 H        -2.043336         0.398322        -0.974581
 H        -2.516372        -0.772043         0.064669
 H        -3.472476         2.119214         0.627130
 H        -3.580167         1.225157         3.015989
 H        -1.909313         2.960323         2.944541
 H        -0.704880         1.876546         3.511208
 H        -0.724432         2.550041         0.458203
 H         0.004226        -0.388971         2.759109
 H        -1.015363        -1.685637         1.879891
