19
Iteration:  3523charge 0 multiplicity 1
 O         0.404597         0.134089         0.236813
 C        -0.815508         0.375299         0.851841
 C        -2.112209         0.185697         0.028871
 C        -2.709071         1.296092         0.944749
 C        -2.597995         0.926005         2.479439
 C        -1.513707         1.988247         2.554039
 C        -1.222654         1.918157         1.122389
 O        -2.117072        -0.376427         2.762171
 C        -0.794262        -0.403747         2.264269
 H         0.235490         0.202618        -0.725784
 H        -1.828488         0.535023        -1.029477
 H        -2.659371        -0.743165        -0.060939
 H        -3.501171         2.050455         0.753515
 H        -3.626890         1.161182         2.960729
 H        -1.881748         3.036461         2.913127
 H        -0.597587         1.918339         3.269767
 H        -0.667694         2.735639         0.523087
 H        -0.153503        -0.068578         3.083226
 H        -0.632180        -1.500566         1.949330
