19
Iteration:   379charge 0 multiplicity 1
 O         0.403216         0.126671        -0.028052
 C        -0.725661         0.331362         0.832814
 C        -2.169854         0.248566         0.018992
 C        -2.594017         1.440045         0.967328
 C        -2.630162         0.916663         2.474793
 C        -1.517256         2.038947         2.810325
 C        -1.019866         1.875463         1.378936
 O        -2.263524        -0.451732         2.574178
 C        -0.910209        -0.526158         2.208838
 H         0.923136         0.909264         0.192759
 H        -2.066023         0.453062        -1.093140
 H        -2.673594        -0.678771         0.305947
 H        -3.365838         2.313326         0.763320
 H        -3.592531         0.933776         2.880107
 H        -2.138048         2.955213         2.765849
 H        -0.895839         2.200167         3.617994
 H        -0.446585         2.728750         0.840262
 H        -0.343943        -0.004870         3.047272
 H        -0.731189        -1.635807         2.184905
