19
Iteration:  4914
 O         0.432249         0.060900         0.013406
 C        -0.756606         0.349794         0.830968
 C        -2.114026         0.111220         0.096734
 C        -2.685848         1.291151         1.039833
 C        -2.668261         0.926166         2.488054
 C        -1.589426         2.149374         2.668634
 C        -1.292374         1.838789         1.170975
 O        -2.065012        -0.331329         2.734240
 C        -0.778456        -0.326472         2.146395
 H         1.088494        -0.349717         0.612915
 H        -2.046722         0.507770        -0.881557
 H        -2.814599        -0.806417         0.033676
 H        -3.525284         1.865416         0.754628
 H        -3.524729         1.058517         3.039158
 H        -1.983805         3.181796         2.724178
 H        -0.789530         2.131376         3.420563
 H        -0.703110         2.633791         0.694899
 H        -0.206144         0.340202         2.765702
 H        -0.647948        -1.436144         2.126489
