19
Iteration:  4235charge 0 multiplicity 1
 O         0.380371         0.169857         0.025716
 C        -0.777345         0.423272         0.896424
 C        -2.111286         0.061906         0.167952
 C        -2.643498         1.287265         0.868021
 C        -2.585827         0.979869         2.442030
 C        -1.642218         2.154024         2.601528
 C        -1.243200         1.866003         1.187261
 O        -2.042744        -0.323970         2.816872
 C        -0.782527        -0.504481         2.262439
 H        -0.113754         0.000652        -0.815762
 H        -1.983926         0.123054        -0.935221
 H        -2.596524        -0.959206         0.459266
 H        -3.485558         1.952120         0.524517
 H        -3.519831         0.922013         3.058895
 H        -2.110187         3.123700         2.950448
 H        -0.841271         1.873598         3.407047
 H        -0.789113         2.673804         0.486957
 H         0.047996        -0.080636         2.769010
 H        -0.472009        -1.488899         2.068376
