19
Iteration:  2642
 O         0.512359         0.169683         0.244788
 C        -0.867023         0.301974         0.771444
 C        -2.194100         0.232564         0.037467
 C        -2.657667         1.324072         0.890777
 C        -2.600993         0.958620         2.579903
 C        -1.412796         1.991048         2.707423
 C        -1.266538         1.815478         1.164747
 O        -2.163271        -0.358344         2.719881
 C        -0.906591        -0.463746         2.086615
 H         0.829727         1.073179         0.116461
 H        -2.026482         0.569792        -0.984973
 H        -2.647063        -0.756712        -0.050222
 H        -3.462889         1.950451         0.550832
 H        -3.450366         1.196490         3.268162
 H        -1.820324         3.041533         2.924707
 H        -0.420090         2.006444         3.263947
 H        -0.738950         2.557800         0.512783
 H        -0.028652        -0.114335         2.721234
 H        -0.853387        -1.550948         1.944393
