19
Iteration:  2001
 O         0.457521         0.070565         0.260909
 C        -0.794362         0.395239         0.794274
 C        -2.138299         0.259868        -0.023217
 C        -2.645247         1.331825         0.945580
 C        -2.614802         0.922509         2.512809
 C        -1.509351         2.082946         2.715673
 C        -1.251055         1.923273         1.218632
 O        -2.122756        -0.366650         2.809037
 C        -0.863915        -0.591376         2.005661
 H         0.400098         0.659733        -0.490244
 H        -1.943143         0.620849        -1.045646
 H        -2.676376        -0.685114         0.018289
 H        -3.366090         2.102806         0.628333
 H        -3.571838         1.119120         2.971199
 H        -1.877819         3.088326         2.754712
 H        -0.578006         2.108875         3.328987
 H        -0.928419         2.831086         0.595723
 H        -0.076581        -0.440498         2.878681
 H        -0.829632        -1.683814         1.777986
