19
Iteration:  1774charge 0 multiplicity 1
 O         0.388836         0.018069         0.044786
 C        -0.729167         0.307121         0.882763
 C        -2.129381         0.254822         0.094402
 C        -2.593442         1.367072         0.948062
 C        -2.697730         0.977438         2.504228
 C        -1.658087         2.071484         2.730125
 C        -1.112671         1.876916         1.287490
 O        -2.102333        -0.315747         2.667161
 C        -0.791156        -0.483887         2.132335
 H         0.446889         0.629796        -0.695320
 H        -1.926443         0.490200        -0.937266
 H        -2.667350        -0.709340         0.020516
 H        -3.428841         2.105166         0.796455
 H        -3.571566         0.838236         3.132833
 H        -2.299560         2.986225         2.745854
 H        -0.916998         2.052740         3.594948
 H        -0.633506         2.586824         0.711913
 H        -0.104123        -0.255647         3.019608
 H        -0.836147        -1.533795         1.825592
