19
Iteration:  2807charge 0 multiplicity 1
 O         0.480738         0.270954         0.265217
 C        -0.773615         0.336524         0.789686
 C        -2.182119         0.224248        -0.006913
 C        -2.657336         1.331395         0.953292
 C        -2.594925         0.993893         2.515114
 C        -1.445008         2.068800         2.717387
 C        -1.236052         1.821689         1.120150
 O        -2.127169        -0.317753         2.778599
 C        -0.958284        -0.714988         2.061866
 H         0.728757         1.045324        -0.284808
 H        -2.265492         0.499384        -1.020517
 H        -2.686794        -0.725718        -0.150199
 H        -3.289738         2.129051         0.636942
 H        -3.433093         1.088314         3.203601
 H        -1.811043         3.009037         3.121069
 H        -0.751941         1.780516         3.498560
 H        -0.641259         2.467202         0.460978
 H        -0.130099        -0.711116         2.801997
 H        -1.104415        -1.686989         1.789537
