19
Iteration:  4544charge 0 multiplicity 1
 O         0.400276         0.198706         0.013033
 C        -0.735236         0.316280         0.850589
 C        -2.105495         0.044530         0.145290
 C        -2.700380         1.197259         0.951379
 C        -2.649096         1.058511         2.496037
 C        -1.643447         2.112954         2.645662
 C        -1.231927         1.799797         1.152506
 O        -2.044953        -0.222699         2.837105
 C        -0.809991        -0.520254         2.144190
 H         1.035736         0.920724         0.257916
 H        -2.041669         0.356072        -0.875446
 H        -2.742329        -0.845124         0.213563
 H        -3.580079         1.699624         0.614179
 H        -3.609755         1.069198         3.015645
 H        -1.867060         3.216992         2.591767
 H        -0.879424         1.871730         3.345778
 H        -0.774796         2.578031         0.550467
 H         0.182742        -0.173156         2.785173
 H        -0.799906        -1.535709         1.831296
