19
Iteration:   740
 O         0.526179         0.373147         0.222108
 C        -0.778187         0.395491         0.789202
 C        -2.157699         0.176458         0.111560
 C        -2.639418         1.405999         0.951688
 C        -2.657379         0.981959         2.507851
 C        -1.383599         1.941623         2.710501
 C        -1.073312         1.817778         1.277864
 O        -2.292359        -0.385971         2.661510
 C        -1.047446        -0.567531         1.956533
 H         0.837979        -0.519241        -0.040344
 H        -2.371589         0.246006        -0.935765
 H        -2.669981        -0.746349         0.259379
 H        -3.429373         2.019453         0.621368
 H        -3.541307         1.062107         3.063350
 H        -1.570801         3.037305         3.074385
 H        -0.573254         1.654200         3.493898
 H        -0.353521         2.538741         0.802774
 H        -0.165698        -0.410632         2.691908
 H        -0.961110        -1.600907         1.726668
