19
Iteration:  2853
 O         0.496282        -0.047859         0.110093
 C        -0.790548         0.349099         0.802573
 C        -2.185526         0.285749         0.021336
 C        -2.607662         1.377983         0.986911
 C        -2.668030         0.973603         2.554071
 C        -1.619757         2.043059         2.808661
 C        -1.143826         1.876384         1.297692
 O        -2.114835        -0.335325         2.613337
 C        -0.790788        -0.451435         2.117225
 H         0.511322         0.559551        -0.645328
 H        -2.125761         0.521203        -1.008656
 H        -2.748602        -0.594934        -0.116284
 H        -3.552208         1.931480         0.715036
 H        -3.686667         0.899021         2.953786
 H        -2.046630         3.090533         2.987628
 H        -0.926459         1.971499         3.670478
 H        -1.009395         2.839999         0.697514
 H        -0.033559        -0.170729         2.822437
 H        -0.700663        -1.494677         1.848252
