19
Iteration:   273
 O         0.461225         0.151341         0.185403
 C        -0.789342         0.339282         0.797193
 C        -2.115102         0.245442         0.058954
 C        -2.617295         1.440280         0.976681
 C        -2.687842         1.000489         2.418104
 C        -1.484022         1.937731         2.823131
 C        -1.182499         1.889565         1.297261
 O        -2.171423        -0.351264         2.658534
 C        -0.914145        -0.580084         2.071509
 H         0.436100         0.653304        -0.652674
 H        -1.894890         0.675024        -1.003797
 H        -2.595552        -0.694368        -0.131298
 H        -3.422267         2.118047         0.590160
 H        -3.651254         1.045632         2.916529
 H        -1.686225         2.995241         3.177335
 H        -0.763093         1.378547         3.498193
 H        -0.602654         2.562883         0.692302
 H        -0.105982        -0.235337         2.760447
 H        -0.767433        -1.689391         1.900224
