19
Iteration:   882
 O         0.535245         0.272626         0.239808
 C        -0.747579         0.382995         0.844056
 C        -2.124381         0.233184         0.053529
 C        -2.666671         1.404151         0.972023
 C        -2.624881         0.965225         2.560899
 C        -1.417407         1.888047         2.719674
 C        -1.210461         1.833695         1.187225
 O        -2.258309        -0.338699         2.602787
 C        -0.938971        -0.533387         2.045809
 H         0.429184        -0.250258        -0.564129
 H        -2.203524         0.549169        -1.013398
 H        -2.764601        -0.674564         0.109207
 H        -3.383270         2.095984         0.775384
 H        -3.509762         1.030572         3.128723
 H        -1.627537         2.927109         3.165938
 H        -0.599271         1.463116         3.385522
 H        -0.636209         2.733590         0.794656
 H        -0.192966        -0.453275         2.869876
 H        -1.074811        -1.559270         1.827354
