19
Iteration:   615charge 0 multiplicity 1
 O         0.503705         0.234965         0.193538
 C        -0.787549         0.310561         0.851859
 C        -2.166244         0.302287         0.019290
 C        -2.623749         1.389961         0.957139
 C        -2.591443         0.915882         2.468529
 C        -1.346348         2.013310         2.663517
 C        -1.210075         1.798173         1.220892
 O        -2.305087        -0.403401         2.705572
 C        -0.950025        -0.628190         2.100535
 H         0.660607         1.205024         0.026971
 H        -1.947708         0.652146        -0.947121
 H        -2.768780        -0.654421         0.143331
 H        -3.379653         2.166059         0.722684
 H        -3.587748         1.225383         3.032265
 H        -1.753142         2.941486         3.005165
 H        -0.430989         2.093386         3.333167
 H        -0.629138         2.601915         0.801402
 H        -0.271663        -0.176271         2.865643
 H        -0.865781        -1.710603         1.807488
