19
Iteration:  4805charge 0 multiplicity 1
 O         0.310372         0.044274         0.015041
 C        -0.739344         0.408788         0.920185
 C        -2.124304         0.126956         0.081599
 C        -2.672788         1.304269         0.872850
 C        -2.625530         0.897615         2.461660
 C        -1.553306         2.078786         2.687100
 C        -1.274469         1.920308         1.118953
 O        -2.093232        -0.347572         2.754931
 C        -0.735473        -0.350038         2.286510
 H         0.969922         0.697266         0.271237
 H        -1.788820         0.169358        -0.939064
 H        -2.731148        -0.838970         0.196528
 H        -3.514932         1.888339         0.659655
 H        -3.538511         1.018338         2.987262
 H        -2.111903         3.004394         2.876157
 H        -0.683445         1.908750         3.268344
 H        -0.702724         2.671587         0.558635
 H         0.022295         0.122345         3.003129
 H        -0.595533        -1.549115         2.206162
