19
Iteration:  3724charge 0 multiplicity 1
 O         0.493708         0.202629         0.287860
 C        -0.765111         0.375603         0.818238
 C        -2.158206         0.091446         0.094671
 C        -2.731601         1.280697         0.991421
 C        -2.613425         1.010897         2.500402
 C        -1.524521         2.071009         2.640909
 C        -1.296842         1.822108         1.071190
 O        -2.095638        -0.306330         2.755154
 C        -0.805197        -0.434419         2.057203
 H         0.399003        -0.258089        -0.577140
 H        -2.039921         0.289828        -0.951505
 H        -2.734896        -0.854136         0.251217
 H        -3.571481         1.905183         0.577159
 H        -3.471920         1.087411         3.100367
 H        -2.105762         3.032593         2.868963
 H        -0.694043         1.760350         3.339448
 H        -0.874898         2.670613         0.605804
 H         0.063222        -0.154488         2.731560
 H        -0.494042        -1.537337         1.844562
