19
Iteration:  1522
 O         0.487520         0.055104         0.230000
 C        -0.832896         0.367604         0.804861
 C        -2.102375         0.228388         0.019691
 C        -2.632928         1.297657         0.955665
 C        -2.570692         0.942065         2.517458
 C        -1.554462         2.122386         2.684344
 C        -1.217725         1.966982         1.198075
 O        -2.108544        -0.356471         2.808722
 C        -0.958982        -0.537795         2.021519
 H         0.618537         0.669854        -0.540857
 H        -2.047571         0.683266        -0.968665
 H        -2.428374        -0.785974        -0.141464
 H        -3.446130         2.041010         0.628217
 H        -3.489019         1.053245         3.093171
 H        -2.218653         2.965627         3.038906
 H        -0.810414         1.678951         3.438243
 H        -0.742741         2.644586         0.493267
 H        -0.004180        -0.305833         2.723837
 H        -0.949135        -1.590250         1.765259
