19
Iteration:  4164
 O         0.411383         0.180817         0.322511
 C        -0.818498         0.436482         0.876691
 C        -2.182785         0.126604         0.096051
 C        -2.727803         1.226660         0.951753
 C        -2.539791         1.001220         2.494313
 C        -1.518713         2.093327         2.525530
 C        -1.353403         1.926736         1.017882
 O        -1.970707        -0.404050         2.823577
 C        -0.825181        -0.409546         2.109320
 H         0.324346        -0.557272        -0.314216
 H        -2.300278         0.348772        -1.013696
 H        -2.390900        -0.879214         0.362784
 H        -3.555940         1.837466         0.637620
 H        -3.386017         1.020092         3.192578
 H        -1.997049         3.035706         2.877763
 H        -0.545012         2.004494         3.029206
 H        -0.906716         2.496939         0.221355
 H         0.085752        -0.213339         2.808574
 H        -0.679947        -1.448583         1.573649
