19
Iteration:  3535charge 0 multiplicity 1
 O         0.387726         0.079602         0.173964
 C        -0.778257         0.423766         0.903342
 C        -2.072136         0.143803         0.150789
 C        -2.648389         1.333604         0.879121
 C        -2.628581         0.966384         2.487200
 C        -1.484421         2.071994         2.650065
 C        -1.285843         1.886491         1.115969
 O        -2.145468        -0.370890         2.712038
 C        -0.824056        -0.444369         2.201458
 H         0.397111         0.567478        -0.665029
 H        -1.948988         0.583918        -0.888694
 H        -2.494859        -0.859118         0.100373
 H        -3.528312         1.773959         0.361662
 H        -3.512002         0.971117         3.190069
 H        -2.077214         3.026779         2.873063
 H        -0.629561         1.783377         3.353574
 H        -0.848350         2.727587         0.518367
 H        -0.002538        -0.051464         2.867091
 H        -0.470886        -1.562267         2.023274
