19
Iteration:  4578charge 0 multiplicity 1
 O         0.472140         0.241163         0.254045
 C        -0.817467         0.351356         0.820097
 C        -2.185727         0.034947         0.061808
 C        -2.701533         1.208191         0.921254
 C        -2.532046         1.025237         2.530936
 C        -1.508070         2.113569         2.577479
 C        -1.295532         1.837483         1.064285
 O        -2.090640        -0.349054         2.844642
 C        -0.868194        -0.472763         2.111605
 H         0.657725         0.960609        -0.380145
 H        -2.187507         0.317353        -0.998832
 H        -2.713973        -0.884918         0.242695
 H        -3.681167         1.674206         0.741531
 H        -3.383296         1.135903         3.240309
 H        -1.688374         3.221842         2.721853
 H        -0.598606         1.995882         3.158263
 H        -0.949800         2.650512         0.473478
 H         0.176117        -0.130181         2.703664
 H        -0.729990        -1.510924         2.035475
