19
Iteration:  4572
 O         0.467922         0.249172         0.213475
 C        -0.799556         0.321685         0.804648
 C        -2.140061         0.017698         0.021270
 C        -2.705853         1.203044         0.952705
 C        -2.577876         1.018038         2.573965
 C        -1.489105         2.119488         2.591967
 C        -1.308465         1.793820         1.110918
 O        -2.112974        -0.277513         2.847812
 C        -0.826917        -0.476444         2.105612
 H         0.708343         1.088413        -0.249224
 H        -2.213861         0.212702        -1.106241
 H        -2.719331        -0.875198         0.362603
 H        -3.605881         1.815471         0.686337
 H        -3.499975         1.137961         3.177960
 H        -1.846025         3.140783         2.694137
 H        -0.503799         1.951018         3.108448
 H        -0.921816         2.620922         0.437071
 H        -0.022945        -0.121292         2.615387
 H        -0.775859        -1.603390         1.928209
