19
Iteration:  4486
 O         0.512910         0.127840         0.091484
 C        -0.765797         0.328056         0.749345
 C        -2.149296         0.039277         0.086884
 C        -2.796343         1.281069         0.968335
 C        -2.633580         1.001297         2.551183
 C        -1.568001         2.100736         2.708566
 C        -1.343824         1.824692         1.135071
 O        -2.014239        -0.271625         2.734137
 C        -0.777251        -0.338337         2.201648
 H         0.618741        -0.832438         0.118400
 H        -2.146899         0.381267        -0.929706
 H        -2.758578        -0.890090        -0.019520
 H        -3.557818         1.972672         0.565077
 H        -3.598220         0.986203         3.031519
 H        -1.949741         3.090146         2.793454
 H        -0.709117         2.066433         3.416810
 H        -1.054093         2.677396         0.433635
 H         0.035926         0.286856         2.877289
 H        -0.343231        -1.391994         2.249307
