19
Iteration:  1446
 O         0.461082         0.190078         0.204909
 C        -0.766257         0.343493         0.874549
 C        -2.040193         0.194008         0.046086
 C        -2.659974         1.337944         0.926855
 C        -2.642525         1.012165         2.554238
 C        -1.552557         1.989115         2.698776
 C        -1.191338         1.864018         1.134839
 O        -2.134549        -0.319033         2.757693
 C        -0.917598        -0.543763         2.069734
 H         0.225795         0.357905        -0.714950
 H        -2.034308         0.465165        -1.036942
 H        -2.631832        -0.756874         0.027324
 H        -3.701607         1.832344         0.647327
 H        -3.597435         1.110703         3.116093
 H        -1.815004         3.030809         2.948386
 H        -0.782379         2.044125         3.510531
 H        -0.527425         2.591616         0.569405
 H        -0.043838        -0.565229         2.754677
 H        -0.964283        -1.525133         1.683461
