19
Iteration:  1044charge 0 multiplicity 1
 O         0.411577         0.068036         0.152426
 C        -0.787163         0.453600         0.811255
 C        -2.044270         0.334335         0.001908
 C        -2.630918         1.389922         0.948687
 C        -2.667179         0.892680         2.453219
 C        -1.569923         1.950252         2.717694
 C        -1.147758         1.881480         1.270984
 O        -2.107011        -0.278506         2.859121
 C        -0.888279        -0.584337         2.092268
 H         0.258411         0.241873        -0.789635
 H        -1.923768         0.638038        -1.021191
 H        -2.597207        -0.665262        -0.069282
 H        -3.553132         1.884590         0.606722
 H        -3.612775         0.911104         2.942517
 H        -2.094057         2.819649         2.815239
 H        -0.941616         1.880262         3.549696
 H        -0.694005         2.650105         0.605298
 H         0.055282        -0.405991         2.690075
 H        -0.837240        -1.516292         1.506934
