19
Iteration:   859charge 0 multiplicity 1
 O         0.471913         0.419864         0.189595
 C        -0.795757         0.349756         0.845430
 C        -2.148208         0.239698         0.026085
 C        -2.602241         1.375584         0.965501
 C        -2.601085         1.016849         2.474357
 C        -1.310153         1.995923         2.752407
 C        -1.115963         1.796713         1.232434
 O        -2.351684        -0.495252         2.679660
 C        -0.992322        -0.602172         2.036555
 H         0.651002        -0.520808        -0.023411
 H        -2.238078         0.602963        -0.992496
 H        -2.598412        -0.800065         0.009561
 H        -3.381522         1.994506         0.761725
 H        -3.520127         1.160914         2.999702
 H        -1.616928         3.050835         2.926169
 H        -0.578676         1.723582         3.536052
 H        -0.624339         2.639247         0.673567
 H        -0.331395        -0.181339         2.774080
 H        -0.798462        -1.641233         1.992097
