19
Iteration:   696charge 0 multiplicity 1
 O         0.411555         0.107001         0.200608
 C        -0.879980         0.400149         0.872023
 C        -2.041046         0.421816        -0.018469
 C        -2.629955         1.380540         0.971379
 C        -2.704928         0.870489         2.533858
 C        -1.476756         2.041432         2.707057
 C        -1.117191         1.824062         1.300433
 O        -2.134169        -0.403782         2.693779
 C        -0.936767        -0.547941         2.068328
 H         0.336591        -0.290528        -0.671435
 H        -1.717773         0.884479        -0.931604
 H        -2.431032        -0.463552        -0.409910
 H        -3.442436         1.935423         0.629517
 H        -3.614374         1.031267         2.983187
 H        -2.072367         3.044546         2.709903
 H        -0.634543         2.029550         3.523718
 H        -0.563996         2.631526         0.740215
 H        -0.017191        -0.303220         2.672570
 H        -0.742232        -1.556655         1.798440
