19
Iteration:  3133charge 0 multiplicity 1
 O         0.515243         0.272544         0.006128
 C        -0.725927         0.329487         0.855524
 C        -2.094441         0.203070         0.140599
 C        -2.622124         1.338613         1.046927
 C        -2.681594         1.001455         2.462512
 C        -1.629096         2.122575         2.711966
 C        -1.129657         1.755122         1.334277
 O        -2.196090        -0.309371         2.669915
 C        -0.920126        -0.595878         2.038504
 H         0.914709        -0.629111         0.044505
 H        -2.139101         0.430895        -0.884129
 H        -2.511084        -0.755362         0.252348
 H        -3.342546         2.086072         0.602706
 H        -3.611420         0.968929         3.087314
 H        -2.161745         3.092312         2.773069
 H        -0.777021         2.132557         3.475539
 H        -0.787022         2.526360         0.651492
 H        -0.147125        -0.530869         2.890800
 H        -0.805231        -1.691878         1.761481
