19
Iteration:  1848
 O         0.480914         0.258942         0.313556
 C        -0.824868         0.353903         0.900997
 C        -2.149937         0.160137         0.029213
 C        -2.659569         1.333485         0.945189
 C        -2.586950         0.976174         2.591458
 C        -1.395353         2.146168         2.657055
 C        -1.240726         1.818529         1.165930
 O        -2.133459        -0.335882         2.675693
 C        -0.946152        -0.634322         2.004400
 H         0.271146         0.076538        -0.637056
 H        -2.097235         0.630143        -0.994118
 H        -2.623680        -0.810920        -0.086509
 H        -3.410846         2.056674         0.647457
 H        -3.498693         1.016140         3.138284
 H        -1.820954         3.022444         2.945581
 H        -0.545735         1.895532         3.281234
 H        -0.747569         2.664247         0.592881
 H        -0.155353        -0.632031         2.667903
 H        -1.180901        -1.647694         1.655822
