19
Iteration:  3041
 O         0.412826         0.250215         0.149192
 C        -0.782358         0.368711         0.917738
 C        -2.116711         0.130802         0.093012
 C        -2.613834         1.365420         0.930838
 C        -2.647044         0.980664         2.439181
 C        -1.628808         2.150684         2.739124
 C        -1.093279         1.896383         1.272395
 O        -2.112874        -0.352096         2.729888
 C        -0.847431        -0.657606         2.010229
 H         0.360407        -0.492442        -0.474255
 H        -2.077571         0.457230        -0.935359
 H        -2.683011        -0.777297         0.094436
 H        -3.244571         2.183976         0.562474
 H        -3.562451         1.061070         3.008568
 H        -2.175747         3.116651         2.882153
 H        -0.955408         2.039103         3.598968
 H        -0.551057         2.649708         0.644746
 H         0.040684        -0.913937         2.712804
 H        -1.089920        -1.622141         1.575461
