19
Iteration:  3865
 O         0.465189         0.305510         0.177039
 C        -0.839810         0.429826         0.834005
 C        -2.120322        -0.003108         0.073869
 C        -2.721206         1.245551         0.949565
 C        -2.619926         1.029002         2.502174
 C        -1.480506         2.055795         2.605440
 C        -1.265389         1.815132         1.096517
 O        -2.127212        -0.313194         2.846342
 C        -0.811457        -0.451284         2.121009
 H         0.583407        -0.581380        -0.239475
 H        -2.026785         0.427288        -0.924188
 H        -2.603892        -1.081340         0.075834
 H        -3.560218         1.822107         0.467919
 H        -3.450527         1.266527         3.158514
 H        -1.962355         3.027903         2.855710
 H        -0.668054         1.636567         3.220840
 H        -0.712622         2.581244         0.533453
 H        -0.064150        -0.090139         2.849866
 H        -0.538058        -1.441939         2.001783
