19
Iteration:  2352
 O         0.473335         0.023445         0.249650
 C        -0.765424         0.386502         0.804847
 C        -2.175211         0.220382        -0.020883
 C        -2.645681         1.332058         0.971579
 C        -2.597558         0.970493         2.502904
 C        -1.540954         2.107499         2.712222
 C        -1.192827         1.963394         1.237938
 O        -2.132792        -0.340011         2.774036
 C        -0.850269        -0.528435         2.007200
 H         0.324105         0.183474        -0.703721
 H        -2.016815         0.721308        -0.943261
 H        -2.584468        -0.791659         0.015000
 H        -3.603817         1.806283         0.695186
 H        -3.572797         1.007723         2.915751
 H        -2.134483         3.036671         2.987954
 H        -0.777111         1.758862         3.457004
 H        -0.700074         2.758411         0.670089
 H        -0.044485        -0.449394         2.775794
 H        -1.014762        -1.505792         1.729681
