19
Iteration:  1070charge 0 multiplicity 1
 O         0.408043        -0.014129         0.073295
 C        -0.769185         0.311983         0.767287
 C        -2.083332         0.225073         0.082914
 C        -2.640259         1.382276         0.961700
 C        -2.631855         1.028515         2.509083
 C        -1.653926         2.148338         2.809722
 C        -1.198870         1.910555         1.352431
 O        -2.137529        -0.356216         2.644433
 C        -0.794335        -0.577901         2.121558
 H         0.753995         0.738552        -0.410543
 H        -1.999754         0.761371        -0.986506
 H        -2.486858        -0.731324        -0.258939
 H        -3.476101         1.866899         0.517666
 H        -3.592582         0.912415         3.075244
 H        -2.126107         3.181177         3.075399
 H        -0.924576         1.906723         3.642974
 H        -0.530234         2.663577         0.687022
 H        -0.066467        -0.112272         2.752271
 H        -0.518663        -1.532863         1.727417
