19
Iteration:   879
 O         0.546657         0.296008         0.232800
 C        -0.777966         0.386162         0.796174
 C        -2.134104         0.217422         0.034531
 C        -2.667102         1.395674         0.974787
 C        -2.607341         0.970706         2.574600
 C        -1.406041         1.884111         2.731248
 C        -1.191525         1.846783         1.197603
 O        -2.277687        -0.351073         2.600412
 C        -0.952377        -0.535118         2.098448
 H         0.561474        -0.287037        -0.579166
 H        -2.102439         0.581876        -0.976427
 H        -2.790703        -0.718928         0.180530
 H        -3.438769         2.138841         0.612931
 H        -3.519754         1.146277         3.222624
 H        -1.642770         2.783601         3.179939
 H        -0.614947         1.558418         3.361428
 H        -0.601296         2.662512         0.728514
 H        -0.215959        -0.473155         2.840748
 H        -0.998402        -1.607601         1.768875
