19
Iteration:  2179charge 0 multiplicity 1
 O         0.392196         0.129369         0.088512
 C        -0.740868         0.321695         0.816606
 C        -2.117741         0.139024         0.191976
 C        -2.576269         1.412085         0.893725
 C        -2.670003         0.985115         2.499546
 C        -1.568661         2.035177         2.704586
 C        -1.106628         1.784560         1.303179
 O        -2.210198        -0.306224         2.675537
 C        -0.793228        -0.488846         2.078473
 H         0.364094         0.785590        -0.614053
 H        -2.260949         0.241093        -0.856371
 H        -2.713742        -0.746474         0.395066
 H        -3.451933         2.032101         0.527383
 H        -3.736015         1.097364         2.850979
 H        -2.026027         2.967382         2.805514
 H        -0.825585         2.051468         3.489972
 H        -0.420022         2.576737         0.898577
 H        -0.354828        -0.044631         2.850729
 H        -0.501016        -1.517525         2.128432
