19
Iteration:  1592
 O         0.439426         0.064659         0.203412
 C        -0.745851         0.418065         0.859069
 C        -2.101604         0.160630         0.139028
 C        -2.689460         1.355396         0.970791
 C        -2.645833         0.985706         2.500196
 C        -1.503158         2.073599         2.728429
 C        -1.178019         1.891487         1.170650
 O        -2.177238        -0.399041         2.668528
 C        -0.896599        -0.468548         2.052717
 H         0.672792         0.655142        -0.562957
 H        -2.005568         0.376720        -0.947390
 H        -2.669560        -0.810515         0.209804
 H        -3.432703         2.024158         0.589648
 H        -3.588008         1.076112         3.066170
 H        -1.890389         3.022454         2.935060
 H        -0.660659         1.671680         3.168053
 H        -0.651886         2.804817         0.636601
 H        -0.087676        -0.094607         2.746067
 H        -0.655441        -1.493593         1.723457
