19
Iteration:  1755
 O         0.428136         0.000689        -0.026869
 C        -0.758916         0.389602         0.796634
 C        -2.048354         0.202926         0.102182
 C        -2.577015         1.376246         0.986106
 C        -2.654061         0.997210         2.482898
 C        -1.647434         2.159138         2.823003
 C        -1.175213         1.874791         1.303467
 O        -2.197689        -0.377698         2.763488
 C        -0.813712        -0.551180         2.094143
 H         0.765742         0.760409        -0.490600
 H        -2.188075         0.424579        -0.942791
 H        -2.478355        -0.831743         0.144815
 H        -3.246674         2.055391         0.429190
 H        -3.669557         0.879358         2.997013
 H        -2.110603         3.150481         2.484572
 H        -0.988691         2.022763         3.708561
 H        -0.710414         2.679727         0.715197
 H        -0.138891        -0.027125         2.704521
 H        -0.722390        -1.590863         1.965458
