19
Iteration:  3320charge 0 multiplicity 1
 O         0.392765         0.157278         0.165662
 C        -0.831667         0.388057         0.910252
 C        -2.137950         0.206700         0.045984
 C        -2.674417         1.366876         0.915410
 C        -2.640614         0.953781         2.485897
 C        -1.454917         1.993533         2.732670
 C        -1.224503         1.876349         1.181771
 O        -2.125530        -0.359966         2.642891
 C        -0.855248        -0.472887         2.096501
 H         1.068477        -0.159471         0.780161
 H        -1.872731         0.364283        -1.025269
 H        -2.583179        -0.830050         0.279373
 H        -3.505120         2.079936         0.629331
 H        -3.612549         1.053840         2.977354
 H        -1.918710         3.014698         2.842913
 H        -0.582822         1.816993         3.442038
 H        -0.702850         2.716486         0.720539
 H         0.102715        -0.190412         2.712436
 H        -0.741870        -1.485942         1.836158
