19
Iteration:   698charge 0 multiplicity 1
 O         0.423714         0.124667         0.210694
 C        -0.875273         0.387406         0.872127
 C        -2.047165         0.409384        -0.005914
 C        -2.658731         1.374102         0.971909
 C        -2.697242         0.884236         2.529346
 C        -1.471053         2.043752         2.710668
 C        -1.109833         1.831073         1.291559
 O        -2.130279        -0.395537         2.689192
 C        -0.941924        -0.560852         2.058751
 H         0.324272        -0.297465        -0.635630
 H        -1.707182         0.935062        -0.951346
 H        -2.441232        -0.508480        -0.358046
 H        -3.530008         1.960599         0.591095
 H        -3.566470         1.053999         3.025791
 H        -2.045977         3.000306         2.691702
 H        -0.674351         1.927245         3.449968
 H        -0.488630         2.618561         0.802741
 H        -0.081888        -0.309653         2.653221
 H        -0.768680        -1.593097         1.761280
