19
Iteration:  2028charge 0 multiplicity 1
 O         0.434351        -0.032518         0.128184
 C        -0.773586         0.366372         0.811033
 C        -2.153214         0.243306         0.120927
 C        -2.700036         1.350026         0.994626
 C        -2.658451         0.957857         2.496995
 C        -1.602008         2.017615         2.749784
 C        -1.127774         1.867982         1.280600
 O        -2.099378        -0.306197         2.597048
 C        -0.805745        -0.429280         2.095929
 H         0.422483         0.691530        -0.494782
 H        -1.915402         0.668447        -0.874123
 H        -2.621785        -0.772721         0.013862
 H        -3.484101         2.056507         0.657466
 H        -3.642999         0.971906         3.046295
 H        -1.936124         3.063365         2.569903
 H        -0.903451         1.901383         3.569076
 H        -0.564236         2.709477         0.912947
 H        -0.144780         0.056887         2.860303
 H        -0.615629        -1.539697         2.094965
