19
Iteration:  4492charge 0 multiplicity 1
 O         0.464236         0.096785         0.084060
 C        -0.768374         0.326970         0.777384
 C        -2.150262         0.092520         0.103025
 C        -2.790062         1.273562         0.998981
 C        -2.656297         0.925539         2.516012
 C        -1.584233         2.103623         2.666878
 C        -1.296871         1.855314         1.152940
 O        -2.043964        -0.258098         2.702173
 C        -0.696963        -0.313973         2.232054
 H         0.717988        -0.852768         0.267698
 H        -2.296458         0.503578        -0.989638
 H        -2.452962        -0.978187         0.043871
 H        -3.561050         1.970610         0.596606
 H        -3.578569         0.989419         3.188235
 H        -2.066871         3.133128         2.777944
 H        -0.700352         2.126887         3.319472
 H        -0.980323         2.612877         0.477918
 H         0.065360         0.202965         2.640926
 H        -0.450065        -1.402762         2.287432
