19
Iteration:  3043charge 0 multiplicity 1
 O         0.420495         0.254711         0.152132
 C        -0.781416         0.364295         0.908170
 C        -2.112030         0.140287         0.074162
 C        -2.606567         1.366851         0.937056
 C        -2.653990         0.969659         2.457957
 C        -1.619033         2.154834         2.755649
 C        -1.099165         1.885046         1.258866
 O        -2.116898        -0.342031         2.730289
 C        -0.853712        -0.662353         2.014803
 H         0.383857        -0.538299        -0.440265
 H        -2.055468         0.419847        -0.906600
 H        -2.691358        -0.720802         0.096205
 H        -3.304203         2.092266         0.523893
 H        -3.587286         1.016903         3.011309
 H        -2.170768         3.113835         2.835722
 H        -0.870281         2.104326         3.609160
 H        -0.625249         2.645396         0.634972
 H         0.046387        -0.845295         2.714221
 H        -1.164460        -1.621508         1.488909
