19
Iteration:  3662
 O         0.343482         0.214091         0.131618
 C        -0.805581         0.325433         0.878316
 C        -2.149271         0.089299         0.141613
 C        -2.696443         1.336190         0.905003
 C        -2.657545         0.993494         2.413165
 C        -1.593212         2.118761         2.644379
 C        -1.193207         1.838997         1.199862
 O        -2.011759        -0.310498         2.715924
 C        -0.761381        -0.514494         2.128208
 H         1.015014        -0.298363         0.638139
 H        -2.138323         0.215576        -1.027652
 H        -2.733606        -0.840752         0.257687
 H        -3.471293         2.111708         0.790221
 H        -3.642408         0.862928         2.994852
 H        -2.017447         3.113196         2.682256
 H        -0.848120         2.144845         3.410959
 H        -0.440203         2.511541         0.699477
 H        -0.109095        -0.055442         2.962957
 H        -0.542073        -1.585633         1.857642
