19
Iteration:   651
 O         0.411519        -0.003605         0.136699
 C        -0.699533         0.362371         0.836739
 C        -2.064678         0.254246         0.131274
 C        -2.626961         1.450953         0.973189
 C        -2.760497         0.955712         2.452085
 C        -1.544475         1.988147         2.843544
 C        -1.188268         1.823497         1.346658
 O        -2.165586        -0.293138         2.591126
 C        -0.829950        -0.458584         1.998701
 H         0.481245         0.619533        -0.618581
 H        -2.102648         0.451379        -0.927858
 H        -2.641149        -0.662950         0.191435
 H        -3.217416         2.227079         0.585417
 H        -3.734691         1.007090         2.913005
 H        -1.891036         3.082553         2.826585
 H        -0.748983         1.540583         3.562313
 H        -0.660289         2.728616         0.948732
 H        -0.022270        -0.393572         2.772599
 H        -0.723921        -1.488824         1.676269
