19
Iteration:  3017charge 0 multiplicity 1
 O         0.402192         0.207184         0.082630
 C        -0.789123         0.325512         0.891308
 C        -2.075802         0.208873         0.134345
 C        -2.589893         1.449348         0.891382
 C        -2.723228         0.932589         2.417399
 C        -1.575452         2.005166         2.792648
 C        -1.102017         1.793489         1.275341
 O        -2.148759        -0.327246         2.685385
 C        -0.809976        -0.519536         2.130103
 H         0.184029         0.020334        -0.859018
 H        -2.102611         0.299354        -1.017201
 H        -2.836256        -0.608463         0.305271
 H        -3.449163         2.022906         0.426440
 H        -3.714958         0.959730         2.904968
 H        -1.971318         3.043423         2.823897
 H        -0.867518         1.947549         3.593865
 H        -0.553989         2.623708         0.766365
 H         0.073897        -0.268534         2.898024
 H        -0.724668        -1.577401         2.041144
