19
Iteration:   918charge 0 multiplicity 1
 O         0.420886         0.028161         0.160559
 C        -0.717149         0.336850         0.822910
 C        -2.134713         0.333811        -0.075213
 C        -2.552695         1.448923         0.922502
 C        -2.580891         0.894267         2.572622
 C        -1.651072         2.055674         2.804810
 C        -1.165014         1.926209         1.325232
 O        -2.129966        -0.357940         2.719434
 C        -0.932440        -0.597661         2.028833
 H         0.216116         0.471070        -0.667153
 H        -1.835686         0.743293        -1.107009
 H        -2.606925        -0.621676        -0.066824
 H        -3.465103         2.124244         0.764632
 H        -3.555117         0.927509         3.109083
 H        -2.300577         3.033844         2.750551
 H        -0.933879         1.992499         3.703812
 H        -0.539112         2.720348         0.881722
 H         0.056091        -0.355901         2.609787
 H        -0.777362        -1.658284         1.686690
