19
Iteration:  3297
 O         0.415616         0.031483         0.097309
 C        -0.756946         0.394305         0.898923
 C        -2.076100         0.238851         0.131208
 C        -2.633841         1.337212         1.003094
 C        -2.599555         0.989996         2.489617
 C        -1.571093         2.114503         2.741332
 C        -1.216810         2.023806         1.156770
 O        -2.183721        -0.456195         2.615579
 C        -0.880087        -0.571970         2.091271
 H         1.210440         0.473978         0.465847
 H        -2.155098         0.561283        -0.931013
 H        -2.626916        -0.802475         0.324129
 H        -3.449761         1.937978         0.509654
 H        -3.525784         1.115151         3.105070
 H        -2.092455         3.086226         2.886709
 H        -0.708698         1.895134         3.482788
 H        -0.794859         2.841289         0.540470
 H        -0.089139        -0.235826         2.880015
 H        -0.566914        -1.521670         1.737180
