19
Iteration:  1016charge 0 multiplicity 1
 O         0.507829         0.286703         0.251891
 C        -0.828164         0.326752         0.814722
 C        -2.170558         0.214568        -0.050998
 C        -2.633144         1.364183         0.996914
 C        -2.641037         0.990315         2.570704
 C        -1.427288         2.073429         2.726237
 C        -1.244449         1.782993         1.242377
 O        -2.174468        -0.330092         2.678905
 C        -0.904761        -0.615321         2.018312
 H         0.635609        -0.572404        -0.166804
 H        -1.909738         0.753049        -1.065345
 H        -2.731553        -0.701173         0.084954
 H        -3.417870         2.073464         0.693926
 H        -3.606923         0.993108         3.150049
 H        -1.771098         3.193289         2.970871
 H        -0.576544         1.866276         3.483488
 H        -0.890934         2.445759         0.359919
 H        -0.033765        -0.461105         2.694447
 H        -0.736993        -1.647377         1.647507
