19
Iteration:  1951
 O         0.546787         0.225136         0.270413
 C        -0.838535         0.352666         0.764243
 C        -2.148692         0.170769         0.018882
 C        -2.694182         1.364222         0.975212
 C        -2.627281         0.987925         2.516966
 C        -1.436100         2.058208         2.694663
 C        -1.196657         1.798222         1.209958
 O        -2.135475        -0.348060         2.709341
 C        -0.973801        -0.540385         2.065439
 H         0.511466         0.727704        -0.571149
 H        -2.138301         0.500746        -1.030009
 H        -2.728613        -0.786791         0.166072
 H        -3.632281         1.898256         0.614152
 H        -3.543821         1.127316         3.194145
 H        -1.785690         3.073602         3.081744
 H        -0.570723         1.787828         3.339852
 H        -0.521695         2.362637         0.601940
 H        -0.174989        -0.505724         2.714631
 H        -0.907850        -1.632093         1.833240
