19
Iteration:  1350
 O         0.426069         0.124151         0.061091
 C        -0.763392         0.384064         0.826519
 C        -2.104791         0.127025         0.190156
 C        -2.573900         1.386598         0.967707
 C        -2.779686         1.057930         2.444760
 C        -1.489094         1.983558         2.734977
 C        -1.153724         1.805989         1.276368
 O        -2.197263        -0.382765         2.655268
 C        -0.810712        -0.410708         2.108985
 H         0.341791         0.686097        -0.706071
 H        -2.114415         0.130470        -0.961036
 H        -2.625946        -0.846585         0.607841
 H        -3.268285         2.135814         0.414443
 H        -3.803120         0.922896         2.851084
 H        -2.001266         2.969470         2.809439
 H        -0.881205         2.006634         3.661039
 H        -0.338083         2.610688         0.973251
 H        -0.166969        -0.025408         2.914275
 H        -0.597276        -1.584697         1.937520
