19
Iteration:  3922charge 0 multiplicity 1
 O         0.489506         0.191328         0.124416
 C        -0.744196         0.384444         0.755487
 C        -2.110721         0.130608         0.102183
 C        -2.672189         1.235673         1.028693
 C        -2.660290         0.952626         2.576624
 C        -1.621801         2.156332         2.605093
 C        -1.259841         1.776424         1.185811
 O        -2.053287        -0.260269         2.784567
 C        -0.844487        -0.462903         2.070780
 H         0.682204        -0.740305        -0.061451
 H        -2.110795         0.188032        -1.014073
 H        -2.719133        -0.876952         0.209739
 H        -3.443100         1.818444         0.468570
 H        -3.536069         1.092538         3.243202
 H        -2.200189         3.167874         2.684727
 H        -0.885947         2.274792         3.472449
 H        -0.897285         2.496543         0.489666
 H        -0.016245         0.003826         2.761711
 H        -0.781831        -1.508677         1.868391
