19
Iteration:  2551charge 0 multiplicity 1
 O         0.430638         0.135531         0.306206
 C        -0.844594         0.386506         0.863370
 C        -2.174906         0.270987        -0.017410
 C        -2.694483         1.402757         0.886201
 C        -2.618459         1.004949         2.561003
 C        -1.389401         2.022006         2.653911
 C        -1.251210         1.888476         1.159041
 O        -2.174028        -0.439393         2.683276
 C        -0.775613        -0.524917         2.135841
 H         0.480041         0.218051        -0.675298
 H        -2.072656         0.327551        -1.153237
 H        -2.486391        -0.815366         0.160988
 H        -3.633868         1.995508         0.651633
 H        -3.653850         1.012632         3.044055
 H        -1.833038         2.977848         3.025142
 H        -0.594943         1.764242         3.473941
 H        -0.621079         2.539642         0.544011
 H         0.030785        -0.127780         2.853127
 H        -0.636870        -1.554658         1.906418
