19
Iteration:  1572charge 0 multiplicity 1
 O         0.497534         0.210563         0.334038
 C        -0.809590         0.354203         0.792423
 C        -2.181506         0.182705         0.017272
 C        -2.628817         1.341810         0.934893
 C        -2.580265         1.007760         2.517654
 C        -1.396332         2.014996         2.670720
 C        -1.257708         1.891802         1.176804
 O        -2.157386        -0.308437         2.768282
 C        -0.916082        -0.601816         2.023132
 H         0.615534         0.628080        -0.527900
 H        -2.148323         0.445881        -1.078960
 H        -2.632335        -0.852712         0.178697
 H        -3.601696         1.725207         0.662362
 H        -3.570466         1.186640         3.065808
 H        -2.006727         2.885231         2.753637
 H        -0.673757         1.676901         3.376412
 H        -0.834705         2.721369         0.518910
 H        -0.115116        -0.577039         2.670488
 H        -1.122537        -1.681712         1.719769
