19
Iteration:  3432charge 0 multiplicity 1
 O         0.406067         0.114459         0.110421
 C        -0.783290         0.335973         0.834229
 C        -2.149136         0.210580         0.060556
 C        -2.712933         1.277859         0.939507
 C        -2.629071         1.005692         2.471246
 C        -1.502306         2.014369         2.728131
 C        -1.174629         1.783281         1.199755
 O        -2.144036        -0.344323         2.721879
 C        -0.865011        -0.391961         2.166736
 H         1.158041         0.740843         0.262133
 H        -1.975678         0.706687        -0.933231
 H        -2.503975        -0.865394        -0.022417
 H        -3.408295         1.971870         0.512030
 H        -3.591590         0.967971         2.984983
 H        -1.796319         3.099863         2.694964
 H        -0.758631         1.876097         3.570465
 H        -0.745220         2.648448         0.627456
 H        -0.019797         0.029683         2.743142
 H        -0.659633        -1.451362         2.001126
