19
Iteration:   220
 O         0.422479         0.172496         0.144212
 C        -0.794536         0.346578         0.885590
 C        -2.131046         0.411938        -0.007771
 C        -2.638932         1.346892         0.992488
 C        -2.610222         0.930867         2.467334
 C        -1.526884         2.127686         2.772691
 C        -1.126426         1.867347         1.370159
 O        -2.220210        -0.412915         2.568213
 C        -0.799695        -0.648009         2.127721
 H         0.212690        -0.510932        -0.528662
 H        -1.849262         0.817528        -1.011469
 H        -2.795461        -0.520974        -0.286017
 H        -3.448366         1.820839         0.648529
 H        -3.564944         1.024317         3.046135
 H        -1.891366         3.130673         2.966296
 H        -0.821316         1.945115         3.640406
 H        -0.500249         2.397925         0.727841
 H        -0.086944        -0.342618         2.923324
 H        -0.855029        -1.627316         1.737900
