19
Iteration:  4850
 O         0.486886         0.201068         0.182255
 C        -0.824969         0.353808         0.791298
 C        -2.150987        -0.007852         0.056468
 C        -2.709153         1.228475         0.969733
 C        -2.560034         1.069177         2.540219
 C        -1.536851         2.132217         2.647857
 C        -1.313143         1.851409         1.159096
 O        -2.045105        -0.227660         2.824697
 C        -0.874964        -0.550389         2.038474
 H         1.214779         0.652376         0.611431
 H        -2.210993         0.207487        -1.012366
 H        -2.688005        -1.006180         0.098528
 H        -3.472461         1.822750         0.530122
 H        -3.446270         1.057089         3.215428
 H        -2.050193         3.115374         2.669391
 H        -0.742655         1.995238         3.339640
 H        -0.958075         2.564918         0.430748
 H         0.028170        -0.452705         2.714792
 H        -0.996811        -1.564233         1.418259
