19
Iteration:   853
 O         0.421677         0.401472         0.190250
 C        -0.779493         0.354269         0.838511
 C        -2.121814         0.237494         0.014591
 C        -2.578317         1.357033         1.003404
 C        -2.603201         0.953403         2.490576
 C        -1.363645         2.008067         2.706011
 C        -1.125436         1.787802         1.234835
 O        -2.318424        -0.449839         2.658814
 C        -0.995828        -0.585186         2.042325
 H         0.783854        -0.522119         0.086877
 H        -2.023578         0.788532        -0.971250
 H        -2.774645        -0.610116         0.209719
 H        -3.407506         2.215594         0.814581
 H        -3.626158         1.148665         2.921244
 H        -1.587164         3.075678         3.031444
 H        -0.590477         1.812598         3.501208
 H        -0.501952         2.487790         0.689073
 H        -0.170001        -0.377690         2.845253
 H        -0.845949        -1.710590         1.879401
