19
Iteration:  3071
 O         0.536030         0.260629         0.199569
 C        -0.807057         0.363221         0.794276
 C        -2.115654         0.241592        -0.069856
 C        -2.746361         1.282847         1.040349
 C        -2.622723         0.995909         2.540031
 C        -1.512081         2.018744         2.669728
 C        -1.163048         1.811349         1.184303
 O        -2.189186        -0.355789         2.802043
 C        -0.895040        -0.549487         2.059034
 H         0.870050        -0.662668         0.324796
 H        -2.098385         0.994828        -1.004377
 H        -2.569964        -0.787393        -0.427925
 H        -3.412934         2.101276         0.627480
 H        -3.430336         1.198177         3.268882
 H        -1.940342         3.006943         2.925505
 H        -0.728777         1.736083         3.349853
 H        -0.747925         2.632654         0.550391
 H        -0.059838        -0.175360         2.620894
 H        -0.985672        -1.604649         1.689826
