19
Iteration:  1295
 O         0.499658         0.080643         0.285284
 C        -0.774668         0.410073         0.807721
 C        -2.059043         0.331291        -0.097895
 C        -2.679707         1.244850         1.028040
 C        -2.607801         0.998188         2.586856
 C        -1.528347         2.019817         2.658017
 C        -1.243438         1.821770         1.136160
 O        -2.105192        -0.329887         2.841805
 C        -0.979187        -0.523182         2.028212
 H         0.301871         0.248590        -0.661999
 H        -2.055346         1.035398        -0.944853
 H        -2.429198        -0.744046        -0.254910
 H        -3.440850         1.990489         0.568079
 H        -3.507193         1.168582         3.227638
 H        -2.059244         2.946707         2.917556
 H        -0.726175         1.769750         3.368452
 H        -0.793898         2.590491         0.420078
 H        -0.103020        -0.180169         2.617654
 H        -0.925115        -1.592020         1.518983
