19
Iteration:  4915
 O         0.435339         0.053870         0.012355
 C        -0.752612         0.363369         0.830470
 C        -2.125856         0.112401         0.114030
 C        -2.684087         1.291692         1.028479
 C        -2.665146         0.922708         2.482157
 C        -1.583579         2.138757         2.667012
 C        -1.296445         1.839828         1.169260
 O        -2.064187        -0.333935         2.728642
 C        -0.776871        -0.316873         2.154263
 H         1.100690        -0.354075         0.617029
 H        -2.058254         0.502805        -0.888365
 H        -2.801174        -0.812493         0.025171
 H        -3.502138         1.896685         0.797806
 H        -3.556281         1.081593         3.045483
 H        -2.009780         3.169066         2.728661
 H        -0.802355         2.124339         3.410858
 H        -0.729818         2.642343         0.712109
 H        -0.202057         0.343696         2.788127
 H        -0.659138        -1.455733         2.110703
