19
Iteration:  4428charge 0 multiplicity 1
 O         0.454235         0.351729         0.155921
 C        -0.775525         0.311801         0.816679
 C        -2.114193        -0.019180         0.109561
 C        -2.759890         1.190375         0.948216
 C        -2.621249         1.084651         2.557490
 C        -1.579554         2.256115         2.570109
 C        -1.212734         1.800115         1.133629
 O        -2.097586        -0.273682         2.894270
 C        -0.737806        -0.611971         2.049126
 H         0.486128        -0.422787        -0.445281
 H        -2.289471         0.472623        -0.883213
 H        -2.598473        -0.944548         0.291945
 H        -3.514168         1.814232         0.382610
 H        -3.603110         1.043640         3.093358
 H        -2.019505         3.234630         2.723056
 H        -0.669655         2.090907         3.146856
 H        -0.696622         2.441366         0.420503
 H        -0.051699        -0.462381         2.900829
 H        -1.030234        -1.762717         1.917433
