19
Iteration:  4913charge 0 multiplicity 1
 O         0.428390         0.068609         0.015238
 C        -0.761498         0.335309         0.830156
 C        -2.103395         0.109926         0.079773
 C        -2.687086         1.289087         1.049460
 C        -2.669340         0.930994         2.494840
 C        -1.595409         2.159833         2.670107
 C        -1.286277         1.838527         1.173360
 O        -2.066776        -0.328200         2.740265
 C        -0.780331        -0.338077         2.138522
 H         1.074989        -0.343790         0.607204
 H        -2.033242         0.518926        -0.888007
 H        -2.812603        -0.794054         0.046548
 H        -3.560293         1.840462         0.702906
 H        -3.515075         1.031874         3.046779
 H        -1.961645         3.190773         2.718939
 H        -0.775420         2.135471         3.432881
 H        -0.680608         2.624910         0.668762
 H        -0.195775         0.331229         2.751686
 H        -0.624226        -1.409381         2.142301
