19
Iteration:   428charge 0 multiplicity 1
 O         0.432699         0.167091         0.132092
 C        -0.811231         0.378616         0.794986
 C        -2.045083         0.310455        -0.068861
 C        -2.644791         1.367185         0.874995
 C        -2.594584         0.984430         2.495887
 C        -1.471131         1.989748         2.787830
 C        -1.233056         1.916530         1.267027
 O        -2.163529        -0.369191         2.841446
 C        -0.963127        -0.602505         1.990471
 H         0.985211        -0.070985         0.924072
 H        -1.936382         0.732990        -1.019761
 H        -2.605487        -0.644173        -0.074256
 H        -3.629459         1.769855         0.576261
 H        -3.637533         1.063866         2.983835
 H        -1.749260         2.925711         3.274124
 H        -0.691082         1.618496         3.579164
 H        -0.618742         2.568687         0.700770
 H        -0.113496        -0.314306         2.603165
 H        -1.054162        -1.661008         1.723615
