19
Iteration:  4502
 O         0.366584         0.066880         0.072679
 C        -0.783632         0.370819         0.856251
 C        -2.158489         0.165982         0.129496
 C        -2.690650         1.219544         1.001855
 C        -2.680704         0.959385         2.503866
 C        -1.615616         2.127801         2.573504
 C        -1.249761         1.869794         1.149169
 O        -2.045086        -0.326071         2.718534
 C        -0.643006        -0.305653         2.166516
 H         0.821955        -0.710093         0.473857
 H        -2.037604         0.534778        -0.939215
 H        -2.435690        -0.875022         0.267203
 H        -3.605970         1.743629         0.714173
 H        -3.546270         0.951611         3.212057
 H        -2.263107         3.054770         2.701166
 H        -0.912528         2.029570         3.396198
 H        -0.757015         2.595238         0.564114
 H         0.006690         0.165429         2.814149
 H        -0.450153        -1.347813         2.121531
