19
Iteration:  1396
 O         0.453230         0.095237         0.324121
 C        -0.832015         0.432093         0.818335
 C        -2.173200         0.255669        -0.030179
 C        -2.714658         1.316882         0.904589
 C        -2.579102         0.957915         2.513766
 C        -1.503890         2.102133         2.611769
 C        -1.189931         1.827302         1.189050
 O        -2.109492        -0.393918         2.845821
 C        -0.864670        -0.561887         2.030216
 H         0.794524         0.846657        -0.179423
 H        -2.084924         0.773261        -0.988793
 H        -2.547230        -0.760179        -0.236043
 H        -3.518765         1.920427         0.629813
 H        -3.338528         1.211171         3.242627
 H        -1.890000         3.116342         2.783630
 H        -0.785987         2.030185         3.414624
 H        -0.912766         2.647542         0.514577
 H         0.068334        -0.444425         2.679220
 H        -0.893072        -1.647794         1.541817
