19
Iteration:  3275
 O         0.440876         0.081432         0.053916
 C        -0.761925         0.365790         0.810841
 C        -2.046336         0.222752         0.032559
 C        -2.648246         1.340636         0.975726
 C        -2.676422         0.937393         2.521974
 C        -1.593038         2.061810         2.749898
 C        -1.155389         1.768958         1.295675
 O        -2.193112        -0.289365         2.742628
 C        -0.864610        -0.494794         2.083542
 H         1.010068         0.863964         0.106489
 H        -2.031556         0.672123        -0.978975
 H        -2.636755        -0.773245        -0.136978
 H        -3.385346         2.112192         0.559228
 H        -3.602820         1.111966         3.135525
 H        -2.081817         3.057921         2.647623
 H        -0.739157         1.915989         3.494145
 H        -0.626594         2.520056         0.680328
 H        -0.138912        -0.231408         2.942379
 H        -0.680733        -1.476806         1.723655
