19
Iteration:  4055charge 0 multiplicity 1
 O         0.531337         0.172033         0.135652
 C        -0.804817         0.391682         0.767377
 C        -2.174640         0.146393         0.032095
 C        -2.725549         1.171932         0.988829
 C        -2.618172         0.986471         2.638083
 C        -1.558060         2.104777         2.628345
 C        -1.237340         1.818690         1.069472
 O        -2.109682        -0.306561         2.824303
 C        -0.826632        -0.369161         2.170221
 H         0.462037        -0.706381        -0.270252
 H        -2.185862         0.538187        -1.063018
 H        -2.514982        -0.882509        -0.022458
 H        -3.581007         1.687898         0.578085
 H        -3.488981         1.115118         3.310144
 H        -1.917150         3.178050         2.661336
 H        -0.723527         1.843838         3.336268
 H        -0.870220         2.501792         0.311880
 H        -0.098994         0.085843         2.843436
 H        -0.380956        -1.329065         1.988872
