19
Iteration:  3295
 O         0.422872         0.031395         0.090078
 C        -0.749877         0.390881         0.902208
 C        -2.079603         0.245096         0.120514
 C        -2.632258         1.332828         1.011717
 C        -2.612430         0.995910         2.495122
 C        -1.564176         2.105941         2.737304
 C        -1.216057         2.014021         1.152791
 O        -2.183112        -0.454659         2.617169
 C        -0.888357        -0.556632         2.097094
 H         1.204946         0.498864         0.405968
 H        -2.091306         0.593243        -0.961505
 H        -2.606939        -0.840548         0.371376
 H        -3.435394         1.930640         0.562367
 H        -3.576268         1.091286         3.085775
 H        -2.077508         3.079905         2.871467
 H        -0.740811         1.968135         3.537610
 H        -0.825977         2.870614         0.570028
 H        -0.076487        -0.280120         2.801096
 H        -0.599041        -1.599934         1.792183
