19
Iteration:   239charge 0 multiplicity 1
 O         0.423272         0.123897         0.070016
 C        -0.700295         0.368119         0.874590
 C        -2.071537         0.244136         0.172135
 C        -2.572713         1.518085         0.984401
 C        -2.689897         0.977281         2.502812
 C        -1.585683         1.958247         2.814748
 C        -1.127837         1.872356         1.291092
 O        -2.210054        -0.424063         2.537432
 C        -0.886417        -0.532347         2.078811
 H         0.210737        -0.249639        -0.779791
 H        -1.903742         0.654616        -0.925279
 H        -2.555119        -0.686555         0.143028
 H        -3.287646         2.364878         0.654387
 H        -3.609603         0.909706         3.015243
 H        -2.098726         2.984242         2.943326
 H        -0.936448         1.993777         3.737800
 H        -0.634162         2.714459         0.756323
 H        -0.171276        -0.195328         2.822371
 H        -0.708968        -1.676263         1.847967
