19
Iteration:   229
 O         0.426602         0.145416         0.096940
 C        -0.756205         0.294327         0.885350
 C        -2.071128         0.356338         0.129850
 C        -2.620927         1.429000         1.022752
 C        -2.679518         0.958612         2.455097
 C        -1.553085         2.105984         2.773625
 C        -1.141741         1.861906         1.352104
 O        -2.200094        -0.422139         2.510785
 C        -0.834720        -0.600904         2.098385
 H         0.110456        -0.392139        -0.654544
 H        -1.895840         0.837924        -0.929654
 H        -2.624438        -0.571036         0.087417
 H        -3.454869         2.083865         0.739955
 H        -3.642582         0.964341         2.920489
 H        -2.062205         3.116340         2.847665
 H        -0.747239         1.841484         3.517855
 H        -0.540761         2.647226         0.895148
 H        -0.132126        -0.353862         2.899619
 H        -0.642894        -1.725047         1.904010
