19
Iteration:  1603charge 0 multiplicity 1
 O         0.419634         0.014949         0.146436
 C        -0.774150         0.326295         0.810159
 C        -2.105619         0.206227         0.147482
 C        -2.590909         1.378732         0.982798
 C        -2.670644         1.009813         2.501275
 C        -1.530387         2.018831         2.701073
 C        -1.238448         1.914422         1.237091
 O        -2.175257        -0.361531         2.595875
 C        -0.793200        -0.442814         2.125524
 H         0.545779         0.718347        -0.528145
 H        -1.959929         0.617937        -0.869752
 H        -2.575752        -0.811312         0.173331
 H        -3.481895         1.849876         0.648109
 H        -3.635903         1.034001         3.049010
 H        -1.926717         2.963632         2.976806
 H        -0.877487         1.921472         3.566876
 H        -0.785718         2.762112         0.561844
 H        -0.106685        -0.047130         2.926789
 H        -0.563299        -1.525347         2.110107
