19
Iteration:  3406charge 0 multiplicity 1
 O         0.489456         0.050604         0.174559
 C        -0.781630         0.340980         0.823044
 C        -2.174522         0.226120         0.049353
 C        -2.663813         1.338246         0.941555
 C        -2.612473         0.997017         2.527183
 C        -1.599954         2.034288         2.737604
 C        -1.223821         1.884646         1.175347
 O        -2.164835        -0.356443         2.678856
 C        -0.793953        -0.450652         2.137054
 H         0.906563         0.656352        -0.476339
 H        -2.223430         0.363626        -1.042537
 H        -2.543119        -0.826839         0.347865
 H        -3.327997         2.132442         0.520257
 H        -3.561436         0.912505         3.047907
 H        -1.875759         3.035474         3.020893
 H        -0.785595         1.925518         3.453755
 H        -0.794439         2.699850         0.592415
 H        -0.001983        -0.069112         2.726889
 H        -0.684749        -1.506029         2.021846
