19
Iteration:  3412charge 0 multiplicity 1
 O         0.510828         0.027504         0.156453
 C        -0.798990         0.353844         0.748300
 C        -2.162372         0.178703         0.052416
 C        -2.648561         1.343649         0.985257
 C        -2.681196         0.985307         2.553968
 C        -1.581795         1.996426         2.722720
 C        -1.212231         1.877251         1.198302
 O        -2.171499        -0.315298         2.678799
 C        -0.783369        -0.417263         2.135208
 H         0.817975         0.885444        -0.219794
 H        -2.100400         0.526687        -0.992543
 H        -2.693420        -0.711522         0.258456
 H        -3.377268         2.079069         0.657910
 H        -3.689802         1.061192         3.065748
 H        -1.989786         3.037267         2.879307
 H        -0.725190         1.695818         3.373245
 H        -0.666234         2.569190         0.497318
 H        -0.056805         0.068184         2.911493
 H        -0.425855        -1.545707         2.010175
