19
Iteration:  4953
 O         0.335004         0.127571         0.064376
 C        -0.794346         0.385049         0.888090
 C        -2.139351         0.053697         0.189300
 C        -2.656501         1.271703         0.858181
 C        -2.609881         0.989663         2.456345
 C        -1.524853         2.128119         2.646573
 C        -1.285435         1.890360         1.218314
 O        -2.069630        -0.330872         2.739294
 C        -0.815990        -0.429721         2.119505
 H         1.148665         0.378703         0.553354
 H        -1.863782         0.289783        -0.864105
 H        -2.461471        -0.942092         0.383388
 H        -3.559156         1.981311         0.710851
 H        -3.646997         0.919153         2.916131
 H        -1.978590         3.079262         2.905017
 H        -0.648346         1.938470         3.324150
 H        -0.712875         2.619271         0.587275
 H         0.039120        -0.151305         2.794992
 H        -0.551785        -1.441980         1.868248
