19
Iteration:    78charge 0 multiplicity 1
 O         0.462375         0.120000         0.126873
 C        -0.784862         0.345841         0.807221
 C        -2.055983         0.407937         0.013881
 C        -2.536297         1.438298         0.986970
 C        -2.637358         0.887686         2.486633
 C        -1.600805         2.034875         2.811677
 C        -1.144775         1.909619         1.332963
 O        -2.178765        -0.421705         2.691621
 C        -0.941608        -0.581262         2.027875
 H         0.295542        -0.153699        -0.802827
 H        -2.128179         0.720633        -1.024157
 H        -2.644313        -0.557387         0.158358
 H        -3.384974         2.059537         0.755181
 H        -3.652819         0.933871         2.939424
 H        -2.106988         2.945226         3.031275
 H        -0.819193         1.989435         3.572730
 H        -0.551034         2.611289         0.774310
 H         0.004078        -0.515748         2.717330
 H        -1.022368        -1.637131         1.739060
