19
Iteration:   103
 O         0.432849         0.078831         0.055533
 C        -0.783696         0.395730         0.843799
 C        -2.052430         0.320644         0.012431
 C        -2.660936         1.452278         0.930660
 C        -2.784297         1.038384         2.447329
 C        -1.592102         1.905536         2.915567
 C        -1.134183         1.775766         1.431322
 O        -2.095967        -0.335896         2.633509
 C        -0.810946        -0.452876         2.027716
 H         0.127747        -0.768323        -0.386611
 H        -1.927806         0.740988        -0.902644
 H        -2.515795        -0.661690        -0.191489
 H        -3.367273         2.285125         0.482398
 H        -3.742252         0.908206         3.050447
 H        -1.662317         2.949527         3.107395
 H        -1.000013         1.490919         3.741698
 H        -0.541397         2.601296         1.019520
 H         0.039620        -0.276654         2.633012
 H        -0.873357        -1.492191         1.674445
