19
Iteration:   632charge 0 multiplicity 1
 O         0.413063         0.164008         0.169617
 C        -0.817487         0.345858         0.843338
 C        -2.162036         0.184867         0.095491
 C        -2.582423         1.408098         0.918569
 C        -2.622068         1.039523         2.474990
 C        -1.470040         2.001419         2.800959
 C        -1.076960         1.922092         1.277356
 O        -2.225969        -0.410965         2.594090
 C        -0.910501        -0.567901         2.090705
 H         0.735567         1.000291        -0.255092
 H        -2.020569         0.472566        -1.022337
 H        -2.649489        -0.763076         0.266509
 H        -3.480900         2.007319         0.595285
 H        -3.500125         1.011321         3.040320
 H        -1.985278         2.990309         2.967507
 H        -0.792636         1.540547         3.501146
 H        -0.531065         2.590652         0.552814
 H        -0.128032        -0.390738         2.826913
 H        -0.842703        -1.632886         1.849878
