19
Iteration:  1286charge 0 multiplicity 1
 O         0.518097         0.097366         0.305155
 C        -0.804062         0.447446         0.746797
 C        -2.114948         0.278411        -0.105291
 C        -2.664390         1.240532         0.978518
 C        -2.599186         0.968620         2.582033
 C        -1.456816         1.988771         2.663940
 C        -1.263701         1.872732         1.167730
 O        -2.128843        -0.313811         2.870957
 C        -0.973585        -0.498919         2.022847
 H         0.770553         0.301975        -0.627139
 H        -2.074076         0.768258        -1.033562
 H        -2.535395        -0.665640        -0.472207
 H        -3.580208         1.882027         0.821517
 H        -3.510568         1.307193         3.125422
 H        -1.970242         2.961148         2.812921
 H        -0.802881         1.894711         3.521094
 H        -0.878990         2.694302         0.627789
 H         0.021529        -0.693009         2.535729
 H        -1.041574        -1.675710         1.765826
