19
Iteration:  1891charge 0 multiplicity 1
 O         0.414873        -0.026667         0.053173
 C        -0.750074         0.326824         0.798757
 C        -2.096360         0.229210         0.030943
 C        -2.598730         1.366586         0.999680
 C        -2.732859         1.013017         2.474481
 C        -1.632179         2.004556         2.803004
 C        -1.199222         1.847120         1.343394
 O        -2.103577        -0.310436         2.690501
 C        -0.786348        -0.407400         2.140125
 H         0.609342         0.443189        -0.807061
 H        -1.981390         0.721299        -0.965118
 H        -2.630756        -0.703741        -0.100303
 H        -3.269857         2.055460         0.559864
 H        -3.652001         1.095701         2.989788
 H        -1.969430         2.992269         2.818188
 H        -0.888645         1.822776         3.566502
 H        -0.772494         2.751552         0.782151
 H        -0.024642        -0.027816         2.861688
 H        -0.748713        -1.441105         1.874999
