19
Iteration:  1751charge 0 multiplicity 1
 O         0.426356         0.015991        -0.005236
 C        -0.765199         0.367322         0.797427
 C        -2.082794         0.181531         0.118112
 C        -2.581268         1.342259         0.954482
 C        -2.686836         1.012103         2.485831
 C        -1.631403         2.130514         2.801183
 C        -1.139648         1.912407         1.307100
 O        -2.187883        -0.367654         2.767442
 C        -0.823146        -0.539717         2.058121
 H         0.854899         0.787590        -0.468822
 H        -2.135945         0.552367        -0.919554
 H        -2.445542        -0.821346         0.108787
 H        -3.342514         1.984585         0.459894
 H        -3.565787         0.915069         3.035114
 H        -2.074958         3.123978         2.690416
 H        -0.951182         2.079298         3.693379
 H        -0.668014         2.664301         0.740494
 H        -0.178458        -0.023253         2.802239
 H        -0.683730        -1.637737         1.956420
