19
Iteration:  1936
 O         0.439186         0.127078         0.238199
 C        -0.762854         0.391995         0.840331
 C        -2.203543         0.228974         0.103935
 C        -2.625557         1.356335         0.940919
 C        -2.587717         0.980151         2.502024
 C        -1.483012         1.992148         2.694684
 C        -1.160045         1.889341         1.150228
 O        -2.245194        -0.387223         2.705627
 C        -0.803849        -0.550623         2.077781
 H         0.535705         0.775448        -0.509040
 H        -2.111824         0.534344        -0.971983
 H        -2.647892        -0.778279         0.165084
 H        -3.398170         2.121333         0.683447
 H        -3.534174         1.087107         3.054311
 H        -2.027520         2.870130         2.750190
 H        -0.838077         1.821703         3.573627
 H        -0.824085         2.814305         0.564902
 H         0.024357        -0.070170         2.714797
 H        -0.661041        -1.596486         1.720526
