19
Iteration:  2837
 O         0.355664         0.078542         0.116723
 C        -0.756964         0.390741         0.804013
 C        -2.033349         0.263781         0.021351
 C        -2.625489         1.327152         0.974568
 C        -2.658544         0.961834         2.463668
 C        -1.565313         2.053335         2.775864
 C        -1.190060         1.859108         1.221560
 O        -2.127037        -0.344115         2.814068
 C        -0.885415        -0.545152         2.046510
 H         0.631854         0.769571        -0.488220
 H        -1.931690         0.780541        -1.004865
 H        -2.443948        -0.814038        -0.042185
 H        -3.272009         2.110663         0.653687
 H        -3.554242         1.062039         3.085628
 H        -2.008875         3.003982         2.963480
 H        -0.891116         1.770135         3.589921
 H        -0.542884         2.537919         0.714505
 H        -0.040755        -0.198037         2.753481
 H        -0.923589        -1.625022         1.755557
