19
Iteration:   435charge 0 multiplicity 1
 O         0.450678         0.194136         0.182275
 C        -0.816189         0.382305         0.792893
 C        -2.083640         0.333220        -0.070000
 C        -2.622375         1.317211         0.914499
 C        -2.593924         0.991395         2.563475
 C        -1.493350         1.973075         2.714203
 C        -1.199120         1.888144         1.236311
 O        -2.176138        -0.419489         2.888242
 C        -0.985487        -0.569394         1.939844
 H         1.076796        -0.191294         0.813133
 H        -1.912520         0.869073        -1.074480
 H        -2.560379        -0.584624        -0.349116
 H        -3.446665         2.120183         0.598974
 H        -3.559744         1.182273         2.976215
 H        -1.807161         2.975430         3.055509
 H        -0.698261         1.726951         3.318911
 H        -0.709469         2.699742         0.562563
 H        -0.151818        -0.409529         2.685971
 H        -0.996029        -1.690348         1.752948
