19
Iteration:   245charge 0 multiplicity 1
 O         0.445186         0.116245         0.069997
 C        -0.720691         0.445201         0.828764
 C        -2.091146         0.225641         0.131791
 C        -2.543463         1.504379         0.959574
 C        -2.671561         0.959992         2.517690
 C        -1.590079         1.892408         2.853484
 C        -1.094669         1.882285         1.298098
 O        -2.247069        -0.401712         2.580350
 C        -0.872666        -0.491236         2.089418
 H         0.116441        -0.129159        -0.840133
 H        -1.968019         0.329400        -0.907310
 H        -2.646944        -0.792677         0.163069
 H        -3.162880         2.279877         0.459191
 H        -3.611522         1.010085         3.159704
 H        -2.089936         2.832102         2.920987
 H        -1.068464         1.825667         3.800041
 H        -0.609886         2.661253         0.662747
 H        -0.186490        -0.129475         2.898075
 H        -0.824584        -1.458966         1.691915
