19
Iteration:  2718
 O         0.422697         0.088943         0.066426
 C        -0.712673         0.292415         0.832269
 C        -2.089325         0.283281         0.072500
 C        -2.550626         1.343178         0.976847
 C        -2.753798         0.943403         2.501630
 C        -1.624302         2.095995         2.753561
 C        -1.140257         1.810116         1.311699
 O        -2.106839        -0.283131         2.778662
 C        -0.827683        -0.536732         2.013463
 H         0.214526         0.236836        -0.886037
 H        -1.951692         0.489239        -1.018505
 H        -2.860386        -0.538238        -0.021407
 H        -3.307466         2.023512         0.677284
 H        -3.792019         0.902335         2.923683
 H        -2.201485         3.060356         2.665099
 H        -1.236054         2.130863         3.783364
 H        -0.561277         2.555863         0.782360
 H        -0.131053        -0.114221         2.739870
 H        -0.731247        -1.538849         1.855415
