19
Iteration:  1179charge 0 multiplicity 1
 O         0.405871         0.028089         0.250438
 C        -0.790342         0.321407         0.851395
 C        -2.133380         0.292378        -0.027076
 C        -2.618656         1.404142         0.946828
 C        -2.635429         0.973268         2.495135
 C        -1.618068         2.088619         2.788435
 C        -1.204195         1.913006         1.223965
 O        -2.051493        -0.341941         2.711547
 C        -0.812737        -0.566801         2.004132
 H         0.344243         0.034302        -0.735265
 H        -1.988551         0.835653        -1.060523
 H        -2.571765        -0.706956         0.010853
 H        -3.346754         2.147482         0.714383
 H        -3.634314         0.824943         2.979541
 H        -2.135789         3.085137         2.977727
 H        -0.925924         1.881426         3.633306
 H        -0.845612         2.862200         0.655807
 H         0.028744        -0.479104         2.814385
 H        -0.733736        -1.693978         1.790187
