19
Iteration:  2727
 O         0.398308         0.049161         0.037736
 C        -0.746634         0.371204         0.838295
 C        -2.063382         0.243097        -0.019212
 C        -2.588947         1.354686         0.982656
 C        -2.712930         1.012174         2.511572
 C        -1.693990         2.008215         2.780457
 C        -1.134476         1.801383         1.306755
 O        -2.109708        -0.289775         2.742981
 C        -0.816917        -0.517063         2.108860
 H         0.109763         0.299876        -0.872537
 H        -1.701907         0.806954        -0.909337
 H        -2.510480        -0.781037         0.127709
 H        -3.288510         2.176586         0.755204
 H        -3.650826         1.183042         3.111662
 H        -2.092198         2.947502         2.537510
 H        -1.128270         1.935009         3.696174
 H        -0.629375         2.576754         0.767196
 H         0.054715        -0.164631         2.750634
 H        -0.589969        -1.536355         1.993730
