19
Iteration:  2982
 O         0.448168         0.028014         0.189708
 C        -0.760749         0.371622         0.773438
 C        -2.052968         0.284212         0.101899
 C        -2.753671         1.311179         0.983983
 C        -2.665860         0.924378         2.510422
 C        -1.452479         2.027787         2.733170
 C        -1.196786         1.928266         1.217648
 O        -2.182039        -0.375518         2.659840
 C        -0.854930        -0.445935         2.089592
 H         0.657852         0.731974        -0.472626
 H        -1.974154         0.881826        -0.888014
 H        -2.577097        -0.741732         0.104766
 H        -3.638996         1.844341         0.617784
 H        -3.593680         0.996576         3.113180
 H        -1.897778         3.007321         2.827298
 H        -0.685541         1.859441         3.466716
 H        -0.725356         2.604063         0.524094
 H        -0.073928        -0.041664         2.798091
 H        -0.798020        -1.524819         1.956502
