19
Iteration:  4202
 O         0.489545         0.225728         0.044802
 C        -0.809406         0.372448         0.802091
 C        -2.109280         0.026320         0.103530
 C        -2.683547         1.208186         1.018461
 C        -2.672566         1.050079         2.563494
 C        -1.618547         2.138052         2.612257
 C        -1.220298         1.691912         1.192466
 O        -2.051763        -0.238708         2.793288
 C        -0.792846        -0.449483         2.175020
 H         0.180647        -0.150741        -0.814475
 H        -2.154356         0.384069        -0.935885
 H        -2.557926        -1.044593         0.079653
 H        -3.373630         1.928001         0.518926
 H        -3.575675         1.276187         3.130138
 H        -2.034252         3.166235         2.714574
 H        -0.853671         1.923447         3.455657
 H        -0.962974         2.600659         0.531232
 H        -0.069337         0.038717         2.787547
 H        -0.615861        -1.477252         2.081093
