19
Iteration:   357charge 0 multiplicity 1
 O         0.355788         0.159176         0.097437
 C        -0.789599         0.305109         0.863580
 C        -2.094659         0.302553         0.044632
 C        -2.595570         1.396899         0.942001
 C        -2.678990         1.008244         2.449259
 C        -1.517375         1.934860         2.799324
 C        -1.108976         1.818572         1.261655
 O        -2.221795        -0.389400         2.672042
 C        -0.830924        -0.517263         2.106851
 H         0.897708         0.979166         0.094798
 H        -1.775653         0.712932        -0.937331
 H        -2.652079        -0.635186        -0.019052
 H        -3.405758         2.102981         0.484473
 H        -3.593676         1.114675         2.968897
 H        -1.735615         2.961400         3.109835
 H        -0.836193         1.627689         3.510761
 H        -0.547275         2.572918         0.605533
 H        -0.171126        -0.271904         2.940038
 H        -0.835597        -1.591335         1.879787
