19
Iteration:  4642charge 0 multiplicity 1
 O         0.407204         0.193857        -0.006064
 C        -0.730175         0.361447         0.821156
 C        -2.101569         0.104924         0.119214
 C        -2.585511         1.273831         0.909237
 C        -2.694453         0.943802         2.475577
 C        -1.663995         2.093160         2.645825
 C        -1.225046         1.802235         1.213662
 O        -2.083217        -0.242903         2.895954
 C        -0.752313        -0.429994         2.193048
 H         0.131690        -0.390976        -0.762290
 H        -1.982996         0.283564        -0.907577
 H        -2.442804        -0.942043         0.356935
 H        -3.443645         1.864996         0.638951
 H        -3.717169         0.962802         2.867059
 H        -2.078425         3.109376         2.534507
 H        -1.025385         1.890403         3.487695
 H        -0.810886         2.608600         0.624894
 H         0.037541        -0.023221         2.834456
 H        -0.706900        -1.479566         2.119269
