19
Iteration:  3044
 O         0.425072         0.256876         0.153350
 C        -0.779729         0.361132         0.901043
 C        -2.108790         0.149124         0.067745
 C        -2.601312         1.367075         0.940134
 C        -2.656354         0.964874         2.468675
 C        -1.612680         2.155851         2.763774
 C        -1.105137         1.877860         1.252633
 O        -2.118826        -0.336408         2.730618
 C        -0.858444        -0.665623         2.018273
 H         0.394109        -0.555688        -0.414256
 H        -2.033795         0.414622        -0.930718
 H        -2.708954        -0.721099         0.106993
 H        -3.344657         2.043020         0.505215
 H        -3.607492         0.990921         3.013568
 H        -2.164501         3.108164         2.806427
 H        -0.834635         2.135768         3.606036
 H        -0.662375         2.640021         0.630782
 H         0.031771        -0.797000         2.702453
 H        -1.191657        -1.616460         1.449582
