19
Iteration:  4102charge 0 multiplicity 1
 O         0.275147         0.270613         0.025866
 C        -0.771362         0.344149         0.918350
 C        -2.128989         0.005633         0.215394
 C        -2.623583         1.304916         0.833557
 C        -2.659332         1.015683         2.398697
 C        -1.588353         2.118843         2.608091
 C        -1.221531         1.853122         1.227443
 O        -2.023169        -0.323234         2.814228
 C        -0.752691        -0.480439         2.188517
 H         0.717599        -0.601638         0.026516
 H        -2.117407         0.152008        -0.902849
 H        -2.721002        -0.901464         0.417372
 H        -3.431532         2.011574         0.527382
 H        -3.622108         1.163264         2.912348
 H        -2.215707         3.029484         2.767079
 H        -0.772644         1.944270         3.379435
 H        -0.491100         2.628830         0.781150
 H         0.230779        -0.167303         2.621014
 H        -0.558885        -1.467334         1.907963
