19
Iteration:  1610
 O         0.424719        -0.011863         0.096197
 C        -0.778451         0.309775         0.830420
 C        -2.125331         0.249833         0.085580
 C        -2.643582         1.339827         0.959670
 C        -2.641675         0.970030         2.471497
 C        -1.555951         2.007761         2.754036
 C        -1.202672         1.902958         1.264197
 O        -2.169059        -0.324586         2.575877
 C        -0.759068        -0.436096         2.236753
 H         0.459922         0.729826        -0.572579
 H        -2.165051         0.611210        -0.924265
 H        -2.560212        -0.726135         0.066900
 H        -3.424755         2.063401         0.593331
 H        -3.517518         1.053365         3.038864
 H        -2.019984         3.089956         2.893306
 H        -0.957515         2.115663         3.746030
 H        -0.784828         2.645790         0.658439
 H         0.022083         0.007759         2.983235
 H        -0.558650        -1.464721         2.093734
