19
Iteration:   715
 O         0.510617         0.238112         0.252056
 C        -0.771344         0.374525         0.833033
 C        -2.135384         0.287712         0.018880
 C        -2.676418         1.380239         0.966396
 C        -2.590162         1.045723         2.488109
 C        -1.491719         1.962059         2.749982
 C        -1.165214         1.843660         1.248547
 O        -2.217263        -0.351352         2.686559
 C        -0.921922        -0.633356         2.004491
 H         0.539046        -0.363049        -0.487321
 H        -2.109620         0.654732        -1.024138
 H        -2.714914        -0.708153        -0.156446
 H        -3.498436         2.034553         0.703229
 H        -3.593287         1.136839         3.131118
 H        -1.747140         2.958606         3.177546
 H        -0.775783         1.683439         3.597885
 H        -0.679314         2.577116         0.567875
 H         0.015755        -0.712464         2.685359
 H        -0.999750        -1.683308         1.639012
