19
Iteration:   865
 O         0.517762         0.398755         0.196029
 C        -0.825371         0.358838         0.800409
 C        -2.176786         0.233329         0.039129
 C        -2.608642         1.379949         0.956946
 C        -2.599943         1.039230         2.495807
 C        -1.308287         1.958811         2.779206
 C        -1.116203         1.834817         1.243773
 O        -2.349125        -0.481024         2.665196
 C        -0.992138        -0.600383         2.082519
 H         0.683097        -0.455002        -0.214240
 H        -2.206426         0.481307        -1.055651
 H        -2.467822        -0.831246        -0.077541
 H        -3.566923         2.013921         0.513537
 H        -3.496521         1.246991         3.206171
 H        -1.742554         2.949124         2.893632
 H        -0.544273         1.599680         3.461920
 H        -0.697673         2.579052         0.604210
 H        -0.305444        -0.119831         2.828770
 H        -0.726259        -1.710331         1.848945
