19
Iteration:  2447charge 0 multiplicity 1
 O         0.411148        -0.040799         0.083147
 C        -0.715999         0.307392         0.784510
 C        -2.083338         0.177910         0.111684
 C        -2.636398         1.406916         1.013678
 C        -2.662639         0.945002         2.459178
 C        -1.537984         2.054949         2.844818
 C        -1.234284         1.893775         1.222999
 O        -2.205739        -0.291392         2.569007
 C        -0.812763        -0.386492         2.142698
 H         0.914322         0.746054        -0.235448
 H        -2.155781         0.536601        -0.996801
 H        -2.494495        -0.855693         0.329897
 H        -3.494503         2.056983         0.931345
 H        -3.537382         0.936293         3.144420
 H        -2.044862         3.007360         2.953873
 H        -0.795908         1.856299         3.557641
 H        -0.780578         2.683175         0.579376
 H        -0.037758         0.025925         2.845066
 H        -0.559858        -1.594209         2.052965
