19
Iteration:  1001charge 0 multiplicity 1
 O         0.480314         0.337341         0.220300
 C        -0.773063         0.352294         0.833344
 C        -2.170615         0.229977         0.131064
 C        -2.729963         1.342529         1.026953
 C        -2.556454         1.017728         2.528599
 C        -1.391894         2.006247         2.671613
 C        -1.185291         1.796413         1.171757
 O        -2.236361        -0.387640         2.578715
 C        -0.934825        -0.594924         2.051204
 H         0.933199        -0.480077         0.529829
 H        -2.220941         0.575350        -0.891362
 H        -2.603520        -0.803299        -0.058883
 H        -3.469128         2.023129         0.676100
 H        -3.364369         1.167873         3.200585
 H        -1.830059         2.954140         2.804929
 H        -0.597027         1.877323         3.372937
 H        -0.594079         2.615884         0.625876
 H        -0.116396        -0.411768         2.791517
 H        -1.036822        -1.624982         1.746183
