19
Iteration:   973
 O         0.392445         0.189166         0.121917
 C        -0.733363         0.424069         0.801063
 C        -2.133354         0.214312         0.075265
 C        -2.621446         1.414583         0.926035
 C        -2.604686         0.939815         2.463929
 C        -1.402177         1.957309         2.764501
 C        -1.234186         1.874626         1.234803
 O        -2.256092        -0.410282         2.680685
 C        -0.915390        -0.521241         2.090042
 H         1.099704         0.382883         0.758378
 H        -2.198484         0.322772        -1.095533
 H        -2.537038        -0.758803         0.307300
 H        -3.334868         2.230512         0.562511
 H        -3.602546         1.074726         2.971728
 H        -1.684598         3.010841         3.251994
 H        -0.526849         1.713648         3.471905
 H        -0.739938         2.695569         0.661682
 H         0.017555        -0.292308         2.802472
 H        -0.845956        -1.600494         1.750112
