19
Iteration:  4802charge 0 multiplicity 1
 O         0.293343         0.040748         0.017176
 C        -0.751346         0.423021         0.889410
 C        -2.083434         0.114625         0.098415
 C        -2.680839         1.298240         0.878006
 C        -2.626139         0.892398         2.456838
 C        -1.577769         2.077678         2.703804
 C        -1.278972         1.907057         1.145794
 O        -2.083204        -0.313008         2.747249
 C        -0.734428        -0.372183         2.275044
 H         1.038381         0.665896         0.231578
 H        -1.871222         0.120274        -0.971358
 H        -2.686717        -0.767357         0.253192
 H        -3.490134         1.927136         0.515181
 H        -3.513201         0.925952         3.021016
 H        -2.043561         3.036340         2.819810
 H        -0.655962         1.917646         3.318897
 H        -0.607903         2.637001         0.608232
 H        -0.008326         0.122876         2.959761
 H        -0.633126        -1.439812         2.199876
