19
Iteration:  1637charge 0 multiplicity 1
 O         0.381687         0.029822         0.108384
 C        -0.827828         0.274576         0.814758
 C        -2.078942         0.281150         0.082036
 C        -2.527829         1.403007         0.917432
 C        -2.727872         0.942504         2.469031
 C        -1.657348         2.052989         2.726175
 C        -1.152706         1.873806         1.297922
 O        -2.105099        -0.368203         2.776799
 C        -0.762576        -0.450620         2.123890
 H         0.263706         0.514441        -0.750504
 H        -2.015874         0.623114        -1.005814
 H        -2.641348        -0.683901        -0.059677
 H        -3.299061         2.109390         0.608201
 H        -3.761411         1.031755         2.966364
 H        -2.010687         3.111703         2.642985
 H        -1.075992         1.828438         3.609571
 H        -0.506411         2.657686         0.694905
 H         0.061458         0.118114         2.686195
 H        -0.515008        -1.551061         1.838574
