19
Iteration:  4984
 O         0.506038         0.247413         0.015208
 C        -0.799986         0.253641         0.779667
 C        -2.106905         0.128094         0.037472
 C        -2.712999         1.257467         0.942857
 C        -2.625442         1.066953         2.609359
 C        -1.591468         2.126408         2.544184
 C        -1.227987         1.741045         1.201622
 O        -2.068238        -0.290894         2.958774
 C        -0.919414        -0.572513         2.125270
 H         0.933883         1.037071         0.385565
 H        -1.917129         0.607864        -0.998825
 H        -2.382288        -0.891495        -0.001919
 H        -3.549256         1.859568         0.549964
 H        -3.681525         0.944928         3.111258
 H        -1.932923         3.168887         2.558580
 H        -0.756000         2.136408         3.256977
 H        -0.677299         2.440171         0.593483
 H        -0.161188        -0.047374         2.705115
 H        -0.967581        -1.693159         1.934818
