19
Iteration:  1748
 O         0.423110         0.030944         0.017828
 C        -0.757611         0.345857         0.799502
 C        -2.111619         0.173237         0.120943
 C        -2.592547         1.318825         0.932603
 C        -2.702802         1.015919         2.491442
 C        -1.613330         2.101526         2.773410
 C        -1.118543         1.918269         1.311322
 O        -2.171254        -0.353345         2.758527
 C        -0.841001        -0.516685         2.040440
 H         0.857727         0.788379        -0.400363
 H        -2.047861         0.650896        -0.931302
 H        -2.488966        -0.868967         0.121175
 H        -3.418921         1.914885         0.549959
 H        -3.629493         1.011496         3.106893
 H        -2.069178         3.096619         2.925900
 H        -0.962198         2.124891         3.624830
 H        -0.564435         2.781417         0.681530
 H        -0.121822        -0.085035         2.897099
 H        -0.634874        -1.664723         1.924744
