19
Iteration:  4562
 O         0.481082         0.230660         0.134579
 C        -0.816228         0.334449         0.764148
 C        -2.143054         0.022261         0.088782
 C        -2.727025         1.216275         0.976450
 C        -2.689151         0.999793         2.570429
 C        -1.431290         2.119144         2.592851
 C        -1.303172         1.750143         1.147931
 O        -2.071869        -0.199244         2.837940
 C        -0.817590        -0.479941         2.111653
 H         0.612154         1.211604         0.019109
 H        -2.131086         0.211889        -1.021222
 H        -2.314880        -1.119021         0.126857
 H        -3.383172         1.936507         0.466733
 H        -3.620402         1.172113         3.099059
 H        -2.038107         2.951215         2.823210
 H        -0.769699         2.004790         3.494007
 H        -0.826559         2.370408         0.304547
 H        -0.093447        -0.288390         2.821726
 H        -0.747868        -1.612759         1.843438
