19
Iteration:  3274charge 0 multiplicity 1
 O         0.440220         0.086242         0.054325
 C        -0.769189         0.359226         0.819808
 C        -2.045825         0.225720         0.025355
 C        -2.649119         1.336633         0.971726
 C        -2.675816         0.946502         2.517478
 C        -1.600524         2.057359         2.754056
 C        -1.150430         1.765861         1.291802
 O        -2.188099        -0.289801         2.749746
 C        -0.867098        -0.495420         2.081224
 H         1.005485         0.883538         0.098681
 H        -2.048990         0.711091        -0.985865
 H        -2.663621        -0.806378        -0.130330
 H        -3.346382         2.101249         0.527506
 H        -3.596119         1.124427         3.149421
 H        -2.060093         3.073206         2.672563
 H        -0.746429         1.903978         3.494050
 H        -0.603863         2.510629         0.686031
 H        -0.139527        -0.226894         2.911768
 H        -0.639851        -1.492114         1.734554
