19
Iteration:   745
 O         0.487414         0.362380         0.213236
 C        -0.806514         0.415939         0.813515
 C        -2.160072         0.208701         0.107834
 C        -2.627742         1.410273         0.943909
 C        -2.623193         1.011451         2.521749
 C        -1.390236         1.923336         2.727784
 C        -1.056013         1.796619         1.265217
 O        -2.311098        -0.399577         2.631288
 C        -0.974051        -0.578508         2.009883
 H         0.989180        -0.467367         0.059995
 H        -2.314561         0.297178        -1.016820
 H        -2.616366        -0.829720         0.227289
 H        -3.619766         1.964686         0.632241
 H        -3.562854         1.388593         3.089079
 H        -1.738694         2.906799         2.912847
 H        -0.726939         1.558112         3.458707
 H        -0.418711         2.475042         0.721570
 H        -0.134935        -0.392956         2.626608
 H        -0.924525        -1.662191         1.657444
