19
Iteration:  2979
 O         0.441748         0.024040         0.209254
 C        -0.747994         0.386047         0.792410
 C        -2.093278         0.293274         0.101135
 C        -2.751886         1.313016         0.978732
 C        -2.660082         0.907927         2.514371
 C        -1.448160         2.042938         2.710046
 C        -1.211032         1.934059         1.207210
 O        -2.180091        -0.369816         2.670321
 C        -0.831409        -0.463040         2.086453
 H         0.728630         0.729552        -0.393394
 H        -1.957000         0.771777        -0.871684
 H        -2.508714        -0.728304        -0.005340
 H        -3.547315         1.918577         0.599440
 H        -3.574218         0.959262         3.114209
 H        -1.963499         2.986867         2.877202
 H        -0.635738         1.888661         3.479108
 H        -0.734452         2.610381         0.519256
 H        -0.119978        -0.151017         2.721402
 H        -0.847186        -1.547307         1.766829
