19
Iteration:  4716charge 0 multiplicity 1
 O         0.527600         0.245480         0.239999
 C        -0.831962         0.383033         0.767692
 C        -2.128185         0.097039         0.021413
 C        -2.808196         1.153057         0.975424
 C        -2.597918         1.012956         2.518883
 C        -1.440886         2.060180         2.581693
 C        -1.390565         1.871134         1.086039
 O        -2.077556        -0.293424         2.829624
 C        -0.823972        -0.433856         2.100626
 H         0.913570        -0.529825         0.668125
 H        -2.135568         0.516093        -0.992286
 H        -2.709643        -0.872294         0.230325
 H        -3.608545         1.747733         0.700846
 H        -3.378456         1.241893         3.162427
 H        -1.758809         3.040400         2.900068
 H        -0.468143         1.762009         2.999873
 H        -1.042042         2.693375         0.407240
 H        -0.031571        -0.034238         2.757860
 H        -0.619807        -1.628878         1.990471
