19
Iteration:  1462
 O         0.405243         0.186457         0.113092
 C        -0.785300         0.375148         0.830872
 C        -2.130454         0.176790         0.084077
 C        -2.604032         1.335697         0.919188
 C        -2.622099         0.944317         2.436732
 C        -1.498838         2.056928         2.682571
 C        -1.160352         1.842115         1.292526
 O        -2.216194        -0.377366         2.736656
 C        -0.856524        -0.503528         2.189177
 H         0.386834         0.408687        -0.850198
 H        -1.908751         0.463337        -0.965232
 H        -2.565767        -0.847716         0.151892
 H        -3.125473         2.135996         0.520574
 H        -3.599272         1.094136         2.897787
 H        -1.997867         3.048465         2.907879
 H        -0.835104         1.876807         3.535228
 H        -0.702108         2.633538         0.676987
 H        -0.145223        -0.000490         2.838322
 H        -0.541895        -1.607203         2.033558
