19
Iteration:  4313
 O         0.348612         0.209767         0.142795
 C        -0.811511         0.324302         0.850223
 C        -2.100455         0.026298         0.053738
 C        -2.732572         1.247986         0.959733
 C        -2.644732         1.041305         2.451774
 C        -1.497904         2.110377         2.547404
 C        -1.275064         1.850408         1.107101
 O        -1.980926        -0.229532         2.870828
 C        -0.818553        -0.587125         2.193633
 H         0.798694         1.044007         0.402870
 H        -1.822944         0.283100        -0.958351
 H        -2.682137        -0.982581         0.242046
 H        -3.616703         1.797918         0.633861
 H        -3.581980         1.071098         3.065415
 H        -2.054888         3.090339         2.679864
 H        -0.623994         1.916081         3.297368
 H        -0.915684         2.855340         0.640330
 H         0.086398        -0.474769         2.727261
 H        -0.797357        -1.562562         1.650570
