19
Iteration:  3972charge 0 multiplicity 1
 O         0.409015         0.194345         0.064958
 C        -0.848367         0.350278         0.816047
 C        -2.123373         0.043875         0.102806
 C        -2.702317         1.327426         0.972835
 C        -2.641311         0.995481         2.486546
 C        -1.555450         2.080863         2.649300
 C        -1.251014         1.826117         1.148513
 O        -2.092675        -0.345153         2.753304
 C        -0.721956        -0.385388         2.247971
 H         0.911877        -0.648175         0.138582
 H        -1.972648         0.396286        -0.918554
 H        -2.484215        -0.986148         0.161814
 H        -3.566148         1.911599         0.571403
 H        -3.544619         1.158840         3.074686
 H        -1.967061         3.058917         2.688415
 H        -0.859831         2.155346         3.473838
 H        -0.806003         2.656800         0.508790
 H        -0.023923         0.177324         2.829129
 H        -0.523920        -1.445039         1.851078
