19
Iteration:  2769
 O         0.457021         0.088188         0.306353
 C        -0.788213         0.429664         0.786716
 C        -2.168062         0.190489         0.071525
 C        -2.709202         1.397616         0.976072
 C        -2.539440         0.962694         2.546540
 C        -1.434981         2.018358         2.649319
 C        -1.229793         1.917042         1.160930
 O        -2.182968        -0.427328         2.627197
 C        -0.875711        -0.479751         2.103501
 H         0.712408         0.598348        -0.485297
 H        -2.223015         0.611502        -0.998161
 H        -2.515574        -0.844367         0.304106
 H        -3.524273         2.105202         0.634682
 H        -3.466643         1.078916         3.141753
 H        -2.001003         2.868549         3.051807
 H        -0.638367         1.660567         3.319542
 H        -0.868863         2.774722         0.590193
 H        -0.101168        -0.244778         2.902778
 H        -0.711156        -1.536406         1.629889
