19
Iteration:  2997charge 0 multiplicity 1
 O         0.471406         0.090695         0.084714
 C        -0.758588         0.364792         0.841682
 C        -2.132891         0.198688         0.005835
 C        -2.592740         1.334305         1.001579
 C        -2.646035         1.050232         2.519438
 C        -1.546549         1.986491         2.761685
 C        -1.185631         1.811132         1.256065
 O        -2.210259        -0.381531         2.636402
 C        -0.863986        -0.415489         2.176826
 H         0.329446         0.472214        -0.800482
 H        -2.060419         0.525618        -1.035319
 H        -2.528560        -0.802101        -0.113307
 H        -3.487645         1.940312         0.646654
 H        -3.579363         1.145496         3.073519
 H        -1.886970         3.009086         3.084448
 H        -0.836286         1.649258         3.538583
 H        -0.706927         2.759941         0.863611
 H        -0.217754         0.272901         2.928386
 H        -0.384485        -1.404581         2.077672
