19
Iteration:  4550charge 0 multiplicity 1
 O         0.440004         0.223622         0.032945
 C        -0.766044         0.319358         0.854540
 C        -2.131110         0.012977         0.174641
 C        -2.725037         1.210132         0.953047
 C        -2.677718         1.062350         2.465106
 C        -1.590658         2.109485         2.669597
 C        -1.213586         1.742329         1.120700
 O        -2.033127        -0.225856         2.838441
 C        -0.833421        -0.470508         2.133912
 H         0.978723         1.008985         0.126455
 H        -2.055501         0.562933        -0.814785
 H        -2.510672        -1.052088         0.091470
 H        -3.573057         1.800681         0.513292
 H        -3.542614         1.010042         3.142405
 H        -1.806795         3.150362         2.571552
 H        -0.851157         1.911303         3.504581
 H        -0.903848         2.608774         0.472699
 H         0.053803        -0.323389         2.654059
 H        -0.944929        -1.591063         1.899495
