19
Iteration:  1894charge 0 multiplicity 1
 O         0.408596        -0.039651         0.044678
 C        -0.781422         0.336683         0.795331
 C        -2.065438         0.217381         0.038308
 C        -2.608340         1.367538         0.996041
 C        -2.709644         1.026704         2.478477
 C        -1.630432         2.001243         2.819393
 C        -1.199990         1.856767         1.341667
 O        -2.118086        -0.308816         2.671729
 C        -0.742530        -0.408726         2.132074
 H         0.658572         0.442803        -0.749205
 H        -1.958371         0.709834        -0.957517
 H        -2.691755        -0.694652        -0.124483
 H        -3.386870         2.027756         0.463887
 H        -3.644443         1.234766         3.086445
 H        -2.047440         2.988666         2.839489
 H        -0.977033         1.799151         3.693053
 H        -0.820570         2.735777         0.821794
 H        -0.130730        -0.037847         2.824841
 H        -0.690843        -1.526889         1.985238
