19
Iteration:  3020
 O         0.398598         0.216184         0.088538
 C        -0.785860         0.323259         0.898012
 C        -2.085067         0.222819         0.144863
 C        -2.585021         1.455535         0.893014
 C        -2.709595         0.960106         2.405365
 C        -1.595737         2.009621         2.765218
 C        -1.110016         1.794373         1.278303
 O        -2.126671        -0.331170         2.691108
 C        -0.828781        -0.555260         2.122333
 H         0.151704        -0.028875        -0.811957
 H        -2.050267         0.264963        -0.901597
 H        -2.734755        -0.585468         0.359574
 H        -3.473067         1.918822         0.483518
 H        -3.693887         0.944673         2.870259
 H        -1.994197         3.049550         2.785394
 H        -0.869666         1.903686         3.611327
 H        -0.501653         2.612330         0.835846
 H         0.034493        -0.220157         2.852731
 H        -0.712682        -1.656388         1.916922
