19
Iteration:  1846charge 0 multiplicity 1
 O         0.491748         0.262434         0.314472
 C        -0.826830         0.368900         0.908202
 C        -2.142223         0.161086         0.024833
 C        -2.672206         1.329999         0.964799
 C        -2.591105         0.957604         2.595946
 C        -1.383728         2.150854         2.656891
 C        -1.238313         1.810640         1.158786
 O        -2.144279        -0.324085         2.670203
 C        -0.945411        -0.650213         1.993456
 H         0.302823         0.071685        -0.637743
 H        -2.096994         0.610969        -0.983827
 H        -2.644060        -0.799593        -0.051636
 H        -3.416391         2.001271         0.651114
 H        -3.493980         1.049206         3.154651
 H        -1.789726         3.104687         2.943090
 H        -0.562073         1.848242         3.279167
 H        -0.758919         2.618863         0.506608
 H        -0.200502        -0.559610         2.675557
 H        -1.194789        -1.617018         1.643740
