19
Iteration:  3201
 O         0.593158         0.088979         0.276717
 C        -0.719669         0.438182         0.804680
 C        -2.173386         0.212450         0.061007
 C        -2.674551         1.268920         0.975776
 C        -2.626609         0.974911         2.590954
 C        -1.439475         2.110316         2.700856
 C        -1.278567         1.860411         1.258968
 O        -2.200335        -0.379147         2.566656
 C        -0.961008        -0.462902         2.040164
 H         0.368285        -0.002856        -0.680693
 H        -2.188884         0.573698        -0.989952
 H        -2.485242        -0.790420         0.088654
 H        -3.507605         2.013520         0.673608
 H        -3.546252         1.252085         3.138388
 H        -2.015706         2.993150         3.094747
 H        -0.611679         2.043439         3.438680
 H        -0.913009         2.556824         0.474234
 H        -0.126277        -0.356941         2.765082
 H        -0.672923        -1.584549         1.877891
