19
Iteration:  1277
 O         0.529301         0.118009         0.334632
 C        -0.830012         0.388306         0.697172
 C        -2.154460         0.229062        -0.099386
 C        -2.705416         1.295605         0.937942
 C        -2.588571         0.945825         2.519894
 C        -1.437588         2.048014         2.714752
 C        -1.238453         1.908162         1.207641
 O        -2.140756        -0.303745         2.889834
 C        -0.929387        -0.583167         1.997298
 H         0.852029         0.543181        -0.501936
 H        -1.993986         0.757954        -1.028441
 H        -2.611800        -0.729782        -0.124222
 H        -3.623684         1.775472         0.763820
 H        -3.542597         0.958473         3.077474
 H        -1.743675         3.101974         2.825938
 H        -0.561165         1.887469         3.365148
 H        -0.954745         2.741600         0.674786
 H        -0.032889        -0.487905         2.691290
 H        -1.292314        -1.476691         1.534290
