19
Iteration:  1049charge 0 multiplicity 1
 O         0.401199         0.023287         0.115549
 C        -0.771953         0.448180         0.856773
 C        -2.015247         0.337074         0.008704
 C        -2.612523         1.380014         0.968390
 C        -2.701218         0.895133         2.451829
 C        -1.578006         1.979005         2.728442
 C        -1.180427         1.885598         1.272214
 O        -2.100133        -0.291033         2.831173
 C        -0.854697        -0.570700         2.093560
 H         0.232678         0.445344        -0.757502
 H        -1.842050         0.518570        -1.141328
 H        -2.633906        -0.541142        -0.098132
 H        -3.464246         1.980590         0.625717
 H        -3.702627         0.888805         2.975888
 H        -2.185921         2.988931         2.828493
 H        -0.848764         1.853434         3.613032
 H        -0.785639         2.715999         0.574435
 H         0.044866        -0.392254         2.650789
 H        -0.954161        -1.544457         1.594264
