19
Iteration:  2390charge 0 multiplicity 1
 O         0.502849         0.254153         0.287302
 C        -0.804391         0.274673         0.854126
 C        -2.175404         0.185901        -0.085484
 C        -2.638173         1.297286         0.933803
 C        -2.595406         1.030325         2.503407
 C        -1.468067         2.120744         2.683210
 C        -1.233969         1.842134         1.212579
 O        -2.131699        -0.303850         2.826019
 C        -0.952509        -0.682512         2.046601
 H         0.420288         0.340934        -0.665151
 H        -2.054117         0.831771        -0.999730
 H        -2.768366        -0.736449        -0.324579
 H        -3.567801         1.875021         0.806994
 H        -3.492606         1.331410         3.192514
 H        -1.688811         3.153843         2.876268
 H        -0.660617         1.813978         3.366580
 H        -0.532981         2.537246         0.699217
 H         0.044948        -0.593626         2.590923
 H        -1.118908        -1.696421         1.438727
