19
Iteration:   959charge 0 multiplicity 1
 O         0.404294         0.081467         0.071240
 C        -0.837090         0.366388         0.851839
 C        -2.073814         0.262866         0.010715
 C        -2.641666         1.368479         0.952219
 C        -2.671730         1.012428         2.497744
 C        -1.519359         1.954637         2.798888
 C        -1.172804         1.851987         1.320915
 O        -2.131038        -0.305675         2.660380
 C        -0.877960        -0.536221         2.063429
 H         1.133072         0.705858         0.312453
 H        -1.897832         0.651966        -1.034348
 H        -2.644056        -0.712874        -0.027871
 H        -3.410147         2.004514         0.642356
 H        -3.557084         1.076092         3.087781
 H        -1.977823         2.969413         3.013230
 H        -0.783945         1.543504         3.536328
 H        -0.693143         2.738019         0.733899
 H        -0.087625        -0.284107         2.803617
 H        -0.822274        -1.590959         1.832262
