19
Iteration:  3544charge 0 multiplicity 1
 O         0.407234         0.058577         0.138716
 C        -0.703350         0.352243         0.894164
 C        -2.075516         0.131796         0.153568
 C        -2.706532         1.289112         0.907383
 C        -2.633479         1.014232         2.487380
 C        -1.546397         2.107656         2.691562
 C        -1.253397         1.910201         1.201890
 O        -2.163572        -0.354398         2.683285
 C        -0.783913        -0.439737         2.117435
 H         0.564861         0.762962        -0.509318
 H        -2.116401         0.207789        -0.979924
 H        -2.398869        -0.905113         0.312228
 H        -3.582393         1.819669         0.479810
 H        -3.600850         1.151901         3.133136
 H        -1.887134         3.166738         2.959085
 H        -0.736976         2.003863         3.491600
 H        -0.834480         2.596031         0.371785
 H        -0.093145        -0.082944         2.817100
 H        -0.680062        -1.494872         1.894424
