19
Iteration:  4743
 O         0.358118         0.262125         0.171545
 C        -0.859882         0.383722         0.842410
 C        -2.078187         0.086064         0.037984
 C        -2.722529         1.209787         0.943501
 C        -2.584832         1.000897         2.519706
 C        -1.563496         2.138193         2.556334
 C        -1.257171         1.849854         1.093120
 O        -2.032109        -0.334436         2.893022
 C        -0.801171        -0.536031         2.099486
 H         1.012580        -0.265094         0.626815
 H        -1.816885         0.526096        -0.956669
 H        -2.668656        -0.822069         0.065406
 H        -3.588245         1.913648         0.615876
 H        -3.501753         1.160048         3.233511
 H        -2.051521         3.156520         2.609512
 H        -0.725060         2.194742         3.282285
 H        -0.709865         2.525911         0.446438
 H         0.093588        -0.401802         2.703788
 H        -0.754385        -1.533196         1.792438
