19
Iteration:  2640
 O         0.502139         0.162993         0.238405
 C        -0.860331         0.326315         0.791758
 C        -2.198009         0.225772         0.044130
 C        -2.657286         1.327152         0.891576
 C        -2.609425         0.977080         2.565535
 C        -1.417144         2.002156         2.689189
 C        -1.266149         1.812044         1.178958
 O        -2.142314        -0.366232         2.724293
 C        -0.919423        -0.480136         2.073379
 H         0.830289         1.083845         0.122868
 H        -1.998959         0.628675        -1.016238
 H        -2.638225        -0.839627        -0.036553
 H        -3.448245         2.035545         0.588331
 H        -3.525851         1.133307         3.249495
 H        -1.847428         3.026049         2.888905
 H        -0.431803         1.975224         3.310458
 H        -0.673676         2.479572         0.541265
 H        -0.030090        -0.160844         2.726963
 H        -0.762051        -1.518574         1.968993
