19
Iteration:  2104charge 0 multiplicity 1
 O         0.573174         0.145721         0.329604
 C        -0.821805         0.318396         0.714978
 C        -2.200464         0.224064        -0.021672
 C        -2.682916         1.292114         0.991223
 C        -2.615106         0.972485         2.541852
 C        -1.428606         2.101093         2.646466
 C        -1.254439         1.921283         1.213619
 O        -2.111538        -0.323274         2.792219
 C        -0.946749        -0.579271         2.013640
 H         0.687005         0.387873        -0.623398
 H        -2.204983         0.686798        -1.032767
 H        -2.592974        -0.823106        -0.089605
 H        -3.653430         1.759616         0.727214
 H        -3.514873         1.226800         3.154935
 H        -2.040852         2.933204         2.834616
 H        -0.665381         1.959589         3.372040
 H        -0.711592         2.646560         0.597146
 H         0.041682        -0.415743         2.624486
 H        -1.220796        -1.638490         1.855726
