19
Iteration:  4994charge 0 multiplicity 1
 O         0.505260         0.218442         0.063496
 C        -0.862496         0.303163         0.858469
 C        -2.119281         0.118854        -0.018732
 C        -2.717971         1.237640         0.945568
 C        -2.620674         0.941737         2.540919
 C        -1.522268         2.176181         2.625408
 C        -1.246146         1.736703         1.166622
 O        -2.075877        -0.245569         2.966999
 C        -0.876304        -0.523807         2.096611
 H         0.921150         1.070740         0.325098
 H        -1.974673         0.498521        -1.095043
 H        -2.646500        -0.809457        -0.174284
 H        -3.444614         1.858460         0.473105
 H        -3.591508         1.229591         3.132534
 H        -2.075577         3.136717         2.541724
 H        -0.686480         2.180021         3.313953
 H        -0.924057         2.470153         0.454606
 H         0.042570        -0.540804         2.705713
 H        -0.805155        -1.664107         1.825177
