19
Iteration:  2441
 O         0.433598        -0.017104         0.103855
 C        -0.697647         0.338362         0.767188
 C        -2.151329         0.198392         0.129210
 C        -2.663653         1.352977         0.981458
 C        -2.667703         0.967522         2.479692
 C        -1.500034         2.076617         2.824943
 C        -1.195013         1.895264         1.237014
 O        -2.182959        -0.328550         2.555732
 C        -0.836195        -0.437436         2.162088
 H         0.931783         0.701538        -0.291600
 H        -2.242352         0.516061        -0.875077
 H        -2.409636        -0.838565         0.315597
 H        -3.527065         1.985536         0.636270
 H        -3.561417         1.167035         3.096711
 H        -1.995147         3.064264         3.028151
 H        -0.810452         1.722303         3.671315
 H        -0.932010         2.732644         0.580015
 H        -0.109628         0.078820         2.783701
 H        -0.713147        -1.424746         2.075118
