19
Iteration:  3792charge 0 multiplicity 1
 O         0.408776         0.184006        -0.023825
 C        -0.762121         0.312379         0.835417
 C        -2.104276         0.084905         0.086050
 C        -2.689076         1.222515         0.912902
 C        -2.698574         1.041267         2.489637
 C        -1.615304         2.097943         2.657496
 C        -1.215826         1.841902         1.226439
 O        -2.081801        -0.275828         2.868012
 C        -0.774512        -0.442300         2.153831
 H         1.294448         0.320809         0.365586
 H        -1.843151         0.458105        -0.930822
 H        -2.538163        -0.901926         0.148547
 H        -3.461617         1.929316         0.512222
 H        -3.683197         1.197002         3.015365
 H        -2.043559         3.112575         2.904771
 H        -0.939049         1.772063         3.487462
 H        -0.933010         2.527882         0.444331
 H         0.157224        -0.314361         2.724772
 H        -0.825765        -1.648258         2.037153
