19
Iteration:  1374charge 0 multiplicity 1
 O         0.433381         0.128986         0.131262
 C        -0.794738         0.317498         0.816413
 C        -2.107883         0.206749         0.068313
 C        -2.637574         1.317910         0.952645
 C        -2.631918         0.971257         2.505665
 C        -1.511856         2.065700         2.707343
 C        -1.218650         1.838622         1.187004
 O        -2.155099        -0.290680         2.685145
 C        -0.859188        -0.505823         2.157234
 H         0.664430         0.933225        -0.391377
 H        -1.745140         0.448585        -0.910876
 H        -2.666934        -0.732546         0.016385
 H        -3.481347         1.905732         0.693107
 H        -3.574422         0.939502         3.057559
 H        -1.843528         2.998752         3.160934
 H        -0.907324         1.700448         3.509989
 H        -0.729520         2.603608         0.575432
 H        -0.077081        -0.185181         2.924404
 H        -0.848418        -1.684952         2.123403
