19
Iteration:  4476
 O         0.513950         0.196465         0.121896
 C        -0.797846         0.340909         0.817498
 C        -2.211489         0.054169         0.059256
 C        -2.683887         1.204163         0.929658
 C        -2.651198         1.072268         2.555056
 C        -1.536898         2.117703         2.658827
 C        -1.334950         1.808342         1.092939
 O        -2.062560        -0.311441         2.828872
 C        -0.753922        -0.347367         2.104382
 H         0.591186        -0.733055        -0.181293
 H        -1.958542         0.337344        -0.896421
 H        -2.696972        -0.927389         0.290825
 H        -3.588294         1.719935         0.635776
 H        -3.484853         1.065833         3.228966
 H        -1.967756         3.086907         2.821275
 H        -0.892686         1.769493         3.483689
 H        -0.871012         2.638242         0.480836
 H        -0.048655         0.184555         2.880309
 H        -0.556391        -1.412349         1.991386
