19
Iteration:  4870charge 0 multiplicity 1
 O         0.416549         0.243395         0.120860
 C        -0.796237         0.314393         0.827898
 C        -2.100664         0.177752         0.131015
 C        -2.702022         1.244652         0.907105
 C        -2.710104         0.952479         2.497717
 C        -1.544800         2.163165         2.559949
 C        -1.224575         1.882575         1.100226
 O        -1.978638        -0.239238         2.950390
 C        -0.893362        -0.627899         2.064007
 H         1.209436         0.323466         0.689889
 H        -2.057594         0.235212        -0.910804
 H        -2.426572        -0.912339         0.233766
 H        -3.632551         1.624871         0.760877
 H        -3.664675         0.902980         2.879806
 H        -1.946736         3.128691         2.865646
 H        -0.772522         1.874222         3.273274
 H        -0.800758         2.538618         0.319496
 H         0.019686        -0.535493         2.655020
 H        -1.168992        -1.636919         1.601443
