19
Iteration:  2097charge 0 multiplicity 1
 O         0.553742         0.182772         0.295321
 C        -0.783972         0.275421         0.772918
 C        -2.165977         0.177386        -0.019952
 C        -2.707330         1.346507         1.007544
 C        -2.665118         1.020753         2.558729
 C        -1.444142         2.123583         2.654623
 C        -1.211632         1.864182         1.183712
 O        -2.089822        -0.341469         2.770417
 C        -0.974903        -0.590340         2.010927
 H         0.691513         0.394479        -0.641363
 H        -2.058212         0.712844        -0.971034
 H        -2.697372        -0.758986         0.015429
 H        -3.560176         1.923814         0.764043
 H        -3.475557         1.088450         3.239061
 H        -2.113261         3.120310         2.811517
 H        -0.670516         1.787208         3.389344
 H        -0.855554         2.615890         0.509637
 H        -0.155944        -0.390595         2.667469
 H        -0.981741        -1.680296         1.711562
