19
Iteration:  4677
 O         0.370032         0.307082         0.122915
 C        -0.804016         0.297407         0.899566
 C        -2.149427         0.055070         0.160029
 C        -2.628549         1.241806         0.965159
 C        -2.568995         0.994237         2.440568
 C        -1.582270         2.160754         2.576717
 C        -1.239220         1.819326         1.178859
 O        -2.102315        -0.278105         2.744285
 C        -0.739194        -0.510177         2.154189
 H         0.584150        -0.593959        -0.255698
 H        -2.165066         0.177730        -0.919022
 H        -2.604634        -0.896835         0.347108
 H        -3.570580         1.837356         0.638729
 H        -3.653698         0.924252         2.840228
 H        -1.982887         3.209684         2.661838
 H        -0.980154         2.089981         3.473192
 H        -0.804161         2.579854         0.565939
 H         0.061925        -0.089663         2.876607
 H        -0.523903        -1.508825         1.956492
