19
Iteration:  1996
 O         0.485834         0.109418         0.254710
 C        -0.805524         0.390473         0.848809
 C        -2.144729         0.262353        -0.009782
 C        -2.652920         1.323473         0.927667
 C        -2.593712         0.899032         2.522832
 C        -1.473485         2.047442         2.648198
 C        -1.247780         1.942870         1.207096
 O        -2.123966        -0.349558         2.829331
 C        -0.937948        -0.593548         2.012750
 H         0.523773         0.654583        -0.576299
 H        -1.968689         0.625838        -1.030515
 H        -2.567001        -0.765739        -0.037422
 H        -3.467922         2.020366         0.685052
 H        -3.594557         1.018344         3.005291
 H        -1.791214         3.167096         2.745509
 H        -0.644605         2.074502         3.369137
 H        -0.882985         2.832643         0.758360
 H        -0.093516        -0.510044         2.609849
 H        -0.925769        -1.662355         1.806408
