19
Iteration:  3771charge 0 multiplicity 1
 O         0.485996         0.189894         0.091827
 C        -0.821621         0.338459         0.789361
 C        -2.088713         0.052621         0.098669
 C        -2.712150         1.220068         0.980345
 C        -2.648369         0.996483         2.538153
 C        -1.507639         2.085163         2.651063
 C        -1.239826         1.812911         1.155770
 O        -2.124206        -0.252955         2.779551
 C        -0.883909        -0.450760         2.145717
 H         0.885683         1.068650         0.177409
 H        -2.188645         0.491517        -0.976019
 H        -2.314421        -1.005711         0.070954
 H        -3.546934         1.907723         0.750796
 H        -3.560191         1.076989         3.246688
 H        -1.966938         3.089322         2.531086
 H        -0.678886         1.975436         3.359613
 H        -0.756843         2.516278         0.393596
 H        -0.091659        -0.257106         2.801584
 H        -0.642729        -1.631139         1.954147
