19
Iteration:  4798
 O         0.283182         0.048446         0.024413
 C        -0.779369         0.415638         0.849386
 C        -2.035890         0.101019         0.127980
 C        -2.682313         1.292170         0.879805
 C        -2.628827         0.915874         2.451563
 C        -1.601964         2.069406         2.703991
 C        -1.267516         1.887937         1.192732
 O        -2.065389        -0.278316         2.741568
 C        -0.739617        -0.387509         2.244668
 H         1.103424         0.544082         0.141201
 H        -1.989897         0.158908        -1.013360
 H        -2.606458        -0.801732         0.378142
 H        -3.501292         1.957855         0.357511
 H        -3.626053         0.856598         3.097494
 H        -1.988468         3.126673         2.805973
 H        -0.740033         1.956621         3.410018
 H        -0.613190         2.589807         0.672265
 H        -0.050772         0.076308         2.918354
 H        -0.549900        -1.440329         2.130345
