19
Iteration:   685charge 0 multiplicity 1
 O         0.387404         0.046158         0.180597
 C        -0.755259         0.359555         0.813692
 C        -2.047541         0.406526        -0.109645
 C        -2.554898         1.402156         0.986190
 C        -2.642241         0.900090         2.501085
 C        -1.557572         2.049194         2.781641
 C        -1.178731         1.856167         1.290480
 O        -2.205509        -0.443092         2.747192
 C        -0.848696        -0.500537         2.080980
 H         0.072036        -0.190510        -0.729133
 H        -1.799606         1.058966        -0.937090
 H        -2.617908        -0.463752        -0.270879
 H        -3.239905         2.186934         0.835238
 H        -3.572456         0.843593         2.951246
 H        -2.119981         3.064902         2.861789
 H        -0.814953         2.100319         3.671255
 H        -0.805471         2.627726         0.564936
 H        -0.107834        -0.158152         2.838016
 H        -0.780819        -1.521760         1.803681
