19
Iteration:  4222
 O         0.371580         0.224457        -0.032841
 C        -0.725403         0.255193         0.856801
 C        -2.064493         0.073585         0.157081
 C        -2.649698         1.229433         0.921273
 C        -2.673846         0.979657         2.496619
 C        -1.599935         2.138069         2.701867
 C        -1.216368         1.852625         1.145826
 O        -2.113392        -0.277857         2.853958
 C        -0.735698        -0.415247         2.201179
 H         0.141693         0.049933        -0.944715
 H        -2.038074         0.352361        -0.962715
 H        -2.548162        -0.913732         0.306541
 H        -3.607931         1.642390         0.509735
 H        -3.705334         1.121391         2.917558
 H        -2.212517         3.111587         2.694541
 H        -0.757247         2.168849         3.528423
 H        -0.526121         2.509272         0.488645
 H        -0.055241        -0.178042         2.986169
 H        -0.729688        -1.480937         2.134899
