19
Iteration:  3113charge 0 multiplicity 1
 O         0.433369         0.241765         0.204302
 C        -0.796111         0.412896         0.819193
 C        -2.156378         0.141023         0.100540
 C        -2.636489         1.388040         0.946454
 C        -2.626001         1.003663         2.536483
 C        -1.485921         2.042075         2.734372
 C        -1.170507         1.922241         1.161150
 O        -2.190244        -0.420887         2.649777
 C        -0.833834        -0.549483         2.031480
 H         0.871469        -0.563238         0.554091
 H        -2.012249         0.427195        -0.986569
 H        -2.596008        -0.882220         0.113416
 H        -3.587585         1.933864         0.633049
 H        -3.577275         1.091937         3.123479
 H        -2.057296         2.982929         2.902862
 H        -0.711255         1.913665         3.530190
 H        -0.642430         2.677810         0.553341
 H        -0.177217        -0.466018         2.875390
 H        -0.835422        -1.682166         1.635616
