19
Iteration:  4240charge 0 multiplicity 1
 O         0.360187         0.153499         0.080228
 C        -0.749791         0.413808         0.923058
 C        -2.156402         0.027042         0.160472
 C        -2.655426         1.299489         0.861502
 C        -2.603814         0.993802         2.441771
 C        -1.612695         2.111760         2.595499
 C        -1.260906         1.938254         1.179363
 O        -2.033294        -0.333295         2.797761
 C        -0.766061        -0.471354         2.215356
 H         0.018557        -0.027737        -0.794064
 H        -2.023524         0.143067        -0.914676
 H        -2.523459        -0.922549         0.447613
 H        -3.368600         2.081010         0.631694
 H        -3.422364         0.756759         3.110123
 H        -2.006667         3.105085         2.707821
 H        -0.932556         1.890572         3.344487
 H        -0.934019         2.701159         0.557295
 H         0.177854        -0.134510         2.837914
 H        -0.450319        -1.580542         2.062893
