19
Iteration:   223charge 0 multiplicity 1
 O         0.426806         0.160872         0.125345
 C        -0.788816         0.322971         0.879813
 C        -2.108711         0.415913         0.039436
 C        -2.628457         1.355565         1.017556
 C        -2.632027         0.937038         2.450452
 C        -1.533881         2.138735         2.765886
 C        -1.136883         1.864786         1.386041
 O        -2.215825        -0.413168         2.538603
 C        -0.796045        -0.644735         2.125424
 H         0.140089        -0.452780        -0.542788
 H        -1.894758         0.741837        -0.903512
 H        -2.763041        -0.528841        -0.177042
 H        -3.527964         1.910615         0.630411
 H        -3.625999         1.023010         3.014616
 H        -1.923011         3.111823         2.908975
 H        -0.819531         1.887677         3.534480
 H        -0.456968         2.502559         0.767473
 H        -0.105840        -0.314024         2.952920
 H        -0.796329        -1.641917         1.776244
