19
Iteration:   271charge 0 multiplicity 1
 O         0.455289         0.150462         0.175199
 C        -0.771145         0.347679         0.791258
 C        -2.116422         0.237327         0.058972
 C        -2.606276         1.424949         0.971748
 C        -2.695819         1.006341         2.407393
 C        -1.483849         1.932097         2.823091
 C        -1.172564         1.889527         1.329274
 O        -2.180549        -0.358628         2.665705
 C        -0.915351        -0.562011         2.073695
 H         0.437629         0.599388        -0.723244
 H        -1.982578         0.606579        -1.028158
 H        -2.566512        -0.668146        -0.071447
 H        -3.509850         2.139178         0.595508
 H        -3.663571         1.020683         2.836916
 H        -1.641743         2.992870         3.225040
 H        -0.759283         1.425252         3.469758
 H        -0.522560         2.622815         0.743749
 H        -0.159246        -0.135426         2.710090
 H        -0.789872        -1.700946         1.887236
