19
Iteration:  3433charge 0 multiplicity 1
 O         0.398519         0.118524         0.108372
 C        -0.789308         0.344914         0.829056
 C        -2.141450         0.210830         0.053317
 C        -2.713829         1.270470         0.933211
 C        -2.617022         1.008160         2.479847
 C        -1.509934         2.017478         2.731644
 C        -1.177364         1.788956         1.200348
 O        -2.145442        -0.341430         2.722594
 C        -0.863860        -0.406594         2.175431
 H         1.155724         0.724245         0.295380
 H        -1.961074         0.701231        -0.935550
 H        -2.497676        -0.831643         0.017821
 H        -3.387884         1.987391         0.507203
 H        -3.618319         0.968396         2.979215
 H        -1.814990         3.106473         2.667832
 H        -0.728371         1.850473         3.549773
 H        -0.716387         2.633748         0.576880
 H         0.003038         0.013692         2.786725
 H        -0.636014        -1.520961         1.984433
