19
Iteration:  4059
 O         0.552276         0.164217         0.113502
 C        -0.817948         0.371753         0.761734
 C        -2.171837         0.156057         0.062686
 C        -2.706675         1.187627         1.009380
 C        -2.613313         1.010412         2.619616
 C        -1.584295         2.109742         2.598463
 C        -1.251373         1.807657         1.120364
 O        -2.105809        -0.330665         2.804593
 C        -0.803592        -0.334240         2.142974
 H         0.332683        -0.751437        -0.193223
 H        -2.275658         0.504503        -0.967603
 H        -2.526743        -0.878528         0.030494
 H        -3.547104         1.652171         0.440933
 H        -3.463286         1.035979         3.321412
 H        -1.939394         3.133820         2.699745
 H        -0.762305         1.892020         3.302236
 H        -0.789659         2.526040         0.351252
 H        -0.123522         0.149252         3.027643
 H        -0.552964        -1.418180         2.078068
