19
Iteration:   938
 O         0.421910         0.008572         0.042889
 C        -0.771745         0.345342         0.792012
 C        -2.061329         0.391129         0.011845
 C        -2.632569         1.381628         1.017550
 C        -2.712341         0.941029         2.474039
 C        -1.645045         2.115615         2.807385
 C        -1.109294         1.780043         1.305125
 O        -2.145680        -0.387771         2.771899
 C        -0.836645        -0.560543         2.082464
 H         0.860860         0.789379        -0.328498
 H        -1.895685         1.103290        -0.911897
 H        -2.682356        -0.483565        -0.245661
 H        -3.253217         2.169473         0.694432
 H        -3.690552         0.905313         2.910249
 H        -2.218254         3.128165         2.651658
 H        -0.958636         1.937318         3.711443
 H        -0.558637         2.642329         0.735625
 H         0.157649        -0.363417         2.636430
 H        -0.852556        -1.621252         1.789281
