19
Iteration:  2666charge 0 multiplicity 1
 O         0.523993         0.170291         0.276695
 C        -0.821310         0.452889         0.818062
 C        -2.172097         0.164011         0.025478
 C        -2.696151         1.279570         1.023973
 C        -2.617060         1.037288         2.510476
 C        -1.361867         2.001092         2.635981
 C        -1.273031         1.869239         1.134065
 O        -2.202137        -0.412174         2.711287
 C        -0.948131        -0.518522         2.086547
 H         0.851515         0.862038        -0.350958
 H        -2.193068         0.580418        -0.940847
 H        -2.405985        -0.859771        -0.104272
 H        -3.485728         1.987479         0.843921
 H        -3.458621         1.269775         3.142742
 H        -1.559186         3.063314         2.983398
 H        -0.501810         1.677054         3.272202
 H        -0.697166         2.583293         0.492666
 H        -0.189177        -0.188262         2.796812
 H        -0.738360        -1.652974         1.806802
