19
Iteration:  1458charge 0 multiplicity 1
 O         0.423063         0.193728         0.135591
 C        -0.796202         0.369354         0.841295
 C        -2.103976         0.165134         0.070046
 C        -2.580304         1.364992         0.920496
 C        -2.627711         0.942208         2.459881
 C        -1.501784         2.051088         2.676286
 C        -1.167948         1.838509         1.273805
 O        -2.203344        -0.352437         2.755567
 C        -0.875810        -0.522219         2.150388
 H         0.239931         0.407197        -0.796811
 H        -1.933390         0.551137        -0.968272
 H        -2.476924        -0.899723         0.165591
 H        -3.404243         2.091364         0.487534
 H        -3.516177         1.093438         3.072777
 H        -2.145098         2.902730         2.775092
 H        -0.765100         1.734719         3.405660
 H        -0.704592         2.691340         0.647871
 H        -0.133871        -0.108382         2.805700
 H        -0.728015        -1.550112         2.006128
