19
Iteration:  3937
 O         0.458771         0.111290         0.096791
 C        -0.831181         0.382403         0.842989
 C        -2.142365         0.100177         0.080531
 C        -2.702590         1.265180         0.918577
 C        -2.630116         0.990371         2.479806
 C        -1.604101         2.110449         2.692987
 C        -1.266865         1.912171         1.130424
 O        -2.057926        -0.341342         2.805911
 C        -0.734176        -0.371941         2.148148
 H         0.625983        -0.862713         0.164209
 H        -2.165384         0.548984        -0.940257
 H        -2.438223        -0.884925         0.106796
 H        -3.580838         1.857740         0.764837
 H        -3.592479         0.952814         3.012644
 H        -2.128560         3.026023         2.718919
 H        -0.824700         1.945755         3.395672
 H        -0.885324         2.793814         0.555586
 H         0.093098        -0.051271         2.815392
 H        -0.475830        -1.421905         2.000748
