19
Iteration:   412
 O         0.367821         0.105981         0.099025
 C        -0.762685         0.392827         0.877494
 C        -2.102284         0.243713         0.040742
 C        -2.646394         1.380047         0.956653
 C        -2.692547         0.979016         2.434146
 C        -1.511322         1.963607         2.821431
 C        -1.172133         1.894787         1.314037
 O        -2.127148        -0.296425         2.620877
 C        -0.877743        -0.557638         2.063398
 H         1.241336         0.306323         0.525314
 H        -1.912203         0.490143        -1.063272
 H        -2.511115        -0.766660        -0.021646
 H        -3.385072         2.221432         0.644204
 H        -3.612388         0.995995         2.955115
 H        -1.797193         2.985240         3.142380
 H        -0.764572         1.604826         3.467439
 H        -0.745845         2.809878         0.754567
 H        -0.107005        -0.658728         2.896835
 H        -0.978917        -1.611198         1.639992
