19
Iteration:  4190
 O         0.477625         0.202501         0.158311
 C        -0.760697         0.285760         0.809402
 C        -2.175929         0.100736         0.096788
 C        -2.727863         1.229709         0.933613
 C        -2.624728         1.004753         2.533065
 C        -1.562422         2.132383         2.666260
 C        -1.320832         1.848821         1.102396
 O        -2.029983        -0.277295         2.820586
 C        -0.782013        -0.409838         2.131677
 H         0.434025        -0.285380        -0.684990
 H        -2.247199         0.292098        -1.010238
 H        -2.552628        -0.913413         0.388542
 H        -3.646594         1.785454         0.615174
 H        -3.537575         0.936149         3.139341
 H        -2.042389         3.140830         2.806895
 H        -0.669635         2.037370         3.401111
 H        -0.701068         2.378221         0.302666
 H         0.059850        -0.133223         2.719677
 H        -0.698427        -1.456907         1.948326
