19
Iteration:  2171charge 0 multiplicity 1
 O         0.439172         0.133831         0.069819
 C        -0.815811         0.297769         0.814364
 C        -2.149376         0.125692         0.143170
 C        -2.532518         1.406820         0.968408
 C        -2.720776         0.979176         2.508874
 C        -1.580527         2.058766         2.748084
 C        -1.076895         1.796877         1.217822
 O        -2.195457        -0.339406         2.655756
 C        -0.822042        -0.447886         2.164407
 H         0.390867         0.820550        -0.612663
 H        -2.200827         0.360573        -0.948206
 H        -2.636367        -0.835040         0.385020
 H        -3.167878         2.152441         0.566957
 H        -3.722780         0.878508         2.924182
 H        -1.902218         3.072860         2.683994
 H        -0.847108         1.997725         3.499366
 H        -0.556261         2.618035         0.754153
 H        -0.073332         0.031662         2.920192
 H        -0.705656        -1.536768         1.995938
