19
Iteration:  2312
 O         0.425283         0.094111         0.047132
 C        -0.805092         0.341729         0.829511
 C        -2.176579         0.167699         0.133299
 C        -2.643223         1.338325         0.970587
 C        -2.687227         0.950733         2.452291
 C        -1.547618         2.009804         2.744786
 C        -1.013208         1.845875         1.227400
 O        -2.231228        -0.324621         2.636283
 C        -0.793611        -0.418870         2.235842
 H         0.633914         0.811792        -0.571514
 H        -2.066644         0.493737        -0.900220
 H        -2.750802        -0.757545         0.105068
 H        -3.404870         2.054802         0.665608
 H        -3.686169         1.136695         3.007018
 H        -1.992925         2.964705         2.820307
 H        -0.838824         1.906304         3.582451
 H        -0.345324         2.610389         0.785176
 H        -0.065819         0.025360         2.943782
 H        -0.489837        -1.505341         2.059814
