19
Iteration:  4268
 O         0.535499         0.074500         0.206746
 C        -0.791887         0.374542         0.807099
 C        -2.212228         0.106228         0.134266
 C        -2.769068         1.202658         0.986816
 C        -2.567475         1.015645         2.524102
 C        -1.570778         2.137169         2.622412
 C        -1.291145         1.837356         1.147683
 O        -2.047920        -0.305278         2.739020
 C        -0.812298        -0.367556         2.077308
 H         0.595561         0.316871        -0.732273
 H        -2.306673         0.451134        -0.906182
 H        -2.494577        -1.019815         0.276758
 H        -3.640629         1.848209         0.717819
 H        -3.377844         0.898980         3.257882
 H        -2.020345         3.176983         2.746104
 H        -0.749883         1.846853         3.400121
 H        -0.863181         2.555181         0.344736
 H        -0.089656         0.232262         2.627674
 H        -0.568674        -1.404541         2.104159
