19
Iteration:  2864
 O         0.505060        -0.068393         0.152677
 C        -0.721624         0.302995         0.770269
 C        -2.214660         0.278737         0.099092
 C        -2.683255         1.422600         1.017229
 C        -2.653248         0.948949         2.470552
 C        -1.583503         2.058693         2.782941
 C        -1.255929         1.910874         1.327188
 O        -2.127755        -0.389467         2.562918
 C        -0.769112        -0.394315         2.067239
 H         0.560100         0.293952        -0.739910
 H        -2.047811         0.696462        -0.855989
 H        -2.769942        -0.605985         0.231567
 H        -3.384876         2.255606         0.738044
 H        -3.511481         0.991875         3.146524
 H        -2.186410         3.025789         2.815728
 H        -0.916160         1.880773         3.638859
 H        -0.506328         2.682626         0.971135
 H        -0.119781         0.078276         2.764096
 H        -0.474173        -1.443925         1.982168
