19
Iteration:  4040
 O         0.428480         0.247528         0.237521
 C        -0.835515         0.316475         0.789675
 C        -2.098575         0.082289        -0.017078
 C        -2.733951         1.234308         0.970718
 C        -2.591449         0.994379         2.480281
 C        -1.431136         2.085297         2.595861
 C        -1.348518         1.849244         1.082177
 O        -2.050702        -0.301658         2.917718
 C        -0.805458        -0.423258         2.123051
 H         0.487314        -0.528712        -0.351301
 H        -1.986271         0.516131        -0.982209
 H        -2.589507        -0.939654        -0.118756
 H        -3.621676         1.891255         0.743912
 H        -3.526542         1.073291         3.036676
 H        -1.960291         2.983985         2.851876
 H        -0.630185         2.073915         3.308117
 H        -1.013533         2.667475         0.447084
 H        -0.025648        -0.079242         2.767591
 H        -0.935679        -1.566701         2.085718
