19
Iteration:  1438
 O         0.497775         0.164251         0.258614
 C        -0.753504         0.393660         0.841283
 C        -2.102386         0.218713         0.043755
 C        -2.750118         1.249379         0.947195
 C        -2.642041         1.028229         2.547888
 C        -1.504594         2.096024         2.707368
 C        -1.236695         1.861383         1.165661
 O        -2.103876        -0.299699         2.765679
 C        -0.909970        -0.617049         2.027531
 H         0.570203         0.277524        -0.684339
 H        -1.840526         0.610108        -0.993096
 H        -2.641762        -0.809197         0.039873
 H        -3.500869         1.947592         0.558493
 H        -3.606592         1.073409         3.009161
 H        -1.815033         3.138867         2.846588
 H        -0.818882         1.710524         3.492641
 H        -0.619071         2.586512         0.477407
 H        -0.064247        -0.691134         2.624347
 H        -1.069256        -1.553221         1.445710
