19
Iteration:  1925charge 0 multiplicity 1
 O         0.393506         0.015299         0.154365
 C        -0.803989         0.436040         0.830553
 C        -2.127863         0.209346         0.115506
 C        -2.573988         1.411019         0.988892
 C        -2.659689         0.935258         2.443392
 C        -1.519012         2.048758         2.677295
 C        -1.202273         1.896123         1.267757
 O        -2.156692        -0.423464         2.634671
 C        -0.811011        -0.450913         2.146047
 H         0.647721         0.703037        -0.508666
 H        -2.011571         0.560246        -0.943775
 H        -2.791374        -0.652600         0.201208
 H        -3.403029         2.062776         0.641699
 H        -3.582320         1.046041         3.015084
 H        -1.996233         2.939835         2.876158
 H        -0.768298         1.947429         3.484430
 H        -0.785724         2.763821         0.655454
 H        -0.067623        -0.286314         2.984546
 H        -0.555003        -1.506433         1.895679
