19
Iteration:  3145
 O         0.456565         0.292452         0.013691
 C        -0.740053         0.276874         0.797680
 C        -2.084868         0.153174         0.048244
 C        -2.604336         1.396010         0.910202
 C        -2.733188         1.024405         2.556892
 C        -1.630901         2.083773         2.790299
 C        -1.129468         1.819929         1.291423
 O        -2.185811        -0.317017         2.755890
 C        -0.804597        -0.645525         2.086755
 H         0.676129        -0.628631        -0.152088
 H        -1.842481         0.581070        -0.933338
 H        -2.521716        -0.820418        -0.001393
 H        -3.387592         2.169704         0.561438
 H        -3.755884         1.149873         3.014863
 H        -2.148389         3.075456         2.702111
 H        -1.068230         2.033967         3.791936
 H        -0.433315         2.522189         0.781057
 H         0.000599        -0.322441         2.799151
 H        -1.018778        -1.779701         1.903270
