19
Iteration:  2444charge 0 multiplicity 1
 O         0.418614        -0.026567         0.095736
 C        -0.694336         0.314765         0.768096
 C        -2.120646         0.186085         0.118366
 C        -2.650454         1.380965         0.996091
 C        -2.660948         0.943868         2.460067
 C        -1.516515         2.073566         2.842313
 C        -1.216263         1.893455         1.229843
 O        -2.197658        -0.303508         2.557316
 C        -0.828629        -0.409267         2.157957
 H         0.934297         0.709936        -0.265107
 H        -2.214419         0.539371        -0.884329
 H        -2.398612        -0.827091         0.344922
 H        -3.542829         2.031944         0.801824
 H        -3.600514         1.079931         3.188165
 H        -2.019304         3.016259         2.978896
 H        -0.789665         1.758041         3.641301
 H        -0.871651         2.724899         0.551953
 H        -0.038105         0.084081         2.812613
 H        -0.640513        -1.561326         2.059265
