19
Iteration:  1952charge 0 multiplicity 1
 O         0.550903         0.228221         0.272658
 C        -0.840931         0.356729         0.759541
 C        -2.148301         0.164002         0.015729
 C        -2.691997         1.362709         0.973216
 C        -2.634170         0.991617         2.518986
 C        -1.424673         2.062918         2.686926
 C        -1.206697         1.791921         1.222244
 O        -2.132128        -0.341980         2.708906
 C        -0.982346        -0.548772         2.067321
 H         0.505163         0.729276        -0.582205
 H        -2.125751         0.508860        -1.017191
 H        -2.724507        -0.773237         0.150856
 H        -3.607054         1.875604         0.632863
 H        -3.528341         1.101087         3.183563
 H        -1.787891         3.094945         3.089250
 H        -0.573323         1.760821         3.335020
 H        -0.541539         2.356858         0.618692
 H        -0.134007        -0.505339         2.704156
 H        -0.928483        -1.615715         1.817578
