19
Iteration:  2294
 O         0.427861         0.142927         0.059641
 C        -0.734823         0.299013         0.848861
 C        -2.080788         0.164253         0.121007
 C        -2.571955         1.377705         0.929702
 C        -2.628138         1.055162         2.514492
 C        -1.501970         2.073397         2.737842
 C        -1.200131         1.805598         1.252430
 O        -2.235576        -0.358432         2.696620
 C        -0.914894        -0.507921         2.130361
 H         0.563338         0.941395        -0.463079
 H        -2.182184         0.105936        -1.014143
 H        -2.535402        -0.835735         0.327293
 H        -3.333816         1.988123         0.439847
 H        -3.631403         0.952434         2.918829
 H        -1.852420         3.108926         2.962157
 H        -0.834172         1.892384         3.574834
 H        -0.860330         2.652168         0.633193
 H        -0.098669        -0.135100         2.778963
 H        -0.617622        -1.548098         1.886594
