19
Iteration:  3847charge 0 multiplicity 1
 O         0.505825         0.184508         0.127684
 C        -0.724099         0.327682         0.759088
 C        -2.159234         0.138396         0.116373
 C        -2.708070         1.217566         0.999314
 C        -2.641409         0.975503         2.579899
 C        -1.536276         2.126935         2.678329
 C        -1.296276         1.824893         1.119202
 O        -2.095065        -0.307120         2.704373
 C        -0.826560        -0.351627         2.157948
 H         0.832497        -0.746367         0.049649
 H        -2.281555         0.284946        -0.961060
 H        -2.556154        -0.842138         0.103048
 H        -3.591963         1.803041         0.719533
 H        -3.714195         0.946670         2.930656
 H        -2.061651         3.115440         2.600155
 H        -0.717716         1.958450         3.417690
 H        -1.001182         2.650680         0.467218
 H         0.057551         0.096320         2.794565
 H        -0.727286        -1.525478         2.203956
