19
Iteration:  1306
 O         0.448959         0.087636         0.231717
 C        -0.829516         0.329098         0.828972
 C        -2.029751         0.305555         0.012887
 C        -2.695335         1.327704         0.956442
 C        -2.654352         0.933434         2.519531
 C        -1.521868         2.136189         2.691673
 C        -1.219044         1.846796         1.233497
 O        -2.127833        -0.346693         2.778728
 C        -0.863319        -0.521907         2.029535
 H         0.383406         0.075540        -0.722352
 H        -1.838185         0.828332        -0.960079
 H        -2.529732        -0.683901        -0.320321
 H        -3.636639         1.968452         0.714290
 H        -3.584756         0.854715         3.127999
 H        -1.715018         3.202138         2.876441
 H        -0.649252         1.935031         3.339429
 H        -0.883907         2.627225         0.474912
 H        -0.024361        -0.368703         2.732337
 H        -0.798668        -1.693486         1.870987
