19
Iteration:  2433
 O         0.484816         0.002267         0.121908
 C        -0.776790         0.423025         0.809174
 C        -2.181242         0.197055         0.130174
 C        -2.674509         1.307089         0.968828
 C        -2.647300         1.066289         2.521798
 C        -1.500323         2.047969         2.743175
 C        -1.163932         1.887084         1.251253
 O        -2.170993        -0.391873         2.599737
 C        -0.853061        -0.452902         2.114239
 H         0.813465         0.773897        -0.351353
 H        -2.189376         0.405516        -0.923466
 H        -2.694444        -0.761864         0.173886
 H        -3.379771         1.896819         0.352348
 H        -3.714266         1.132221         3.033299
 H        -1.819815         3.031146         3.058751
 H        -0.786491         1.780752         3.573302
 H        -0.810482         2.783375         0.685928
 H        -0.159143        -0.051715         2.942374
 H        -0.611895        -1.587475         2.001878
