19
Iteration:  1227
 O         0.468005         0.163914         0.060141
 C        -0.768736         0.326730         0.829446
 C        -2.148794         0.172761         0.111087
 C        -2.569552         1.347279         0.943105
 C        -2.655654         1.016456         2.502166
 C        -1.474436         2.097768         2.737036
 C        -1.151034         1.853032         1.280900
 O        -2.258087        -0.449028         2.637435
 C        -0.892782        -0.501230         2.158137
 H         0.627681         0.926945        -0.493906
 H        -2.133259         0.486236        -0.960460
 H        -2.664824        -0.772186         0.377694
 H        -3.405791         2.062796         0.712775
 H        -3.564771         1.059548         3.067546
 H        -1.941217         3.072353         2.886669
 H        -0.729416         1.881709         3.534146
 H        -0.532019         2.494602         0.555303
 H        -0.228963         0.023595         2.828353
 H        -0.752907        -1.551465         2.143987
