19
Iteration:  3279charge 0 multiplicity 1
 O         0.439818         0.063377         0.055899
 C        -0.732685         0.384833         0.787379
 C        -2.062698         0.216499         0.057740
 C        -2.644880         1.356701         0.984725
 C        -2.683389         0.929188         2.537181
 C        -1.555782         2.072383         2.729904
 C        -1.176979         1.793896         1.297605
 O        -2.204145        -0.307698         2.713265
 C        -0.854162        -0.483858         2.102088
 H         1.055958         0.815723         0.142135
 H        -1.920424         0.553938        -0.965971
 H        -2.506167        -0.673397        -0.103422
 H        -3.457004         2.056933         0.726493
 H        -3.619953         1.029215         3.050744
 H        -2.124911         2.993270         2.628600
 H        -0.811838         2.012342         3.499283
 H        -0.733442         2.587247         0.674758
 H        -0.164880        -0.276743         2.918298
 H        -0.860766        -1.547683         1.722446
