19
Iteration:  3832charge 0 multiplicity 1
 O         0.465883         0.115708         0.083240
 C        -0.799388         0.371306         0.833571
 C        -2.155820         0.079075         0.108105
 C        -2.710950         1.335867         0.999224
 C        -2.656327         0.977995         2.505427
 C        -1.663501         2.148313         2.639841
 C        -1.235987         1.869843         1.158802
 O        -2.058988        -0.357525         2.714224
 C        -0.704638        -0.433874         2.135668
 H         0.648657        -0.735242         0.511404
 H        -2.063964         0.510567        -0.886756
 H        -2.614390        -0.972643         0.225413
 H        -3.506241         2.032947         0.617786
 H        -3.414607         0.984749         3.243879
 H        -2.192426         3.116590         2.766882
 H        -0.948960         2.279208         3.477243
 H        -0.754062         2.620324         0.510059
 H        -0.041120         0.093353         2.872660
 H        -0.399865        -1.358732         1.887648
