19
Iteration:  2989charge 0 multiplicity 1
 O         0.469376         0.050628         0.131316
 C        -0.785838         0.362552         0.808460
 C        -2.043587         0.247661         0.050677
 C        -2.692961         1.326489         1.009547
 C        -2.657953         1.002671         2.508002
 C        -1.509490         1.997960         2.752032
 C        -1.182102         1.863138         1.230606
 O        -2.183243        -0.386830         2.639527
 C        -0.891779        -0.413041         2.121697
 H         0.509626         0.635899        -0.659661
 H        -2.081188         0.725075        -0.883502
 H        -2.584217        -0.664663         0.061453
 H        -3.653535         1.699176         0.689978
 H        -3.567345         1.126762         3.088939
 H        -1.815055         3.045153         2.920074
 H        -0.706374         1.762093         3.527206
 H        -0.733599         2.728694         0.698180
 H        -0.209087         0.018421         2.785782
 H        -0.470471        -1.470929         2.224165
