19
Iteration:  1686
 O         0.515805         0.227955         0.341229
 C        -0.758258         0.433189         0.761316
 C        -2.164072         0.194892         0.056420
 C        -2.686756         1.276155         1.017378
 C        -2.571843         1.005922         2.556778
 C        -1.379378         2.049345         2.639753
 C        -1.235434         1.821745         1.124493
 O        -2.200140        -0.340543         2.719054
 C        -0.971443        -0.624664         2.040585
 H         0.683760         0.584024        -0.533818
 H        -2.245924         0.514293        -0.970863
 H        -2.451855        -0.823014        -0.049805
 H        -3.507745         1.996539         0.770951
 H        -3.405405         1.286263         3.126938
 H        -2.032774         2.884302         2.768142
 H        -0.517673         1.907157         3.322615
 H        -1.035329         2.515790         0.421408
 H        -0.242387        -0.433798         2.705205
 H        -0.983281        -1.624566         1.685187
