19
Iteration:  1816charge 0 multiplicity 1
 O         0.572305         0.217495         0.286696
 C        -0.800021         0.430951         0.795217
 C        -2.204093         0.141228         0.020793
 C        -2.666309         1.338013         0.970995
 C        -2.595844         0.952387         2.589621
 C        -1.405441         1.964366         2.636049
 C        -1.220491         1.894236         1.131799
 O        -2.205479        -0.349629         2.750042
 C        -0.962985        -0.518083         2.064059
 H         0.448460         0.089721        -0.647369
 H        -2.212153         0.676428        -0.983454
 H        -2.734415        -0.820270         0.019896
 H        -3.459128         1.967758         0.513044
 H        -3.451816         1.215560         3.167636
 H        -1.742876         2.886442         2.995462
 H        -0.569115         1.672133         3.280240
 H        -0.745576         2.807862         0.596251
 H        -0.092005        -0.288587         2.784286
 H        -0.943478        -1.644049         1.752955
