19
Iteration:  2978charge 0 multiplicity 1
 O         0.440596         0.023154         0.215228
 C        -0.746325         0.392678         0.803383
 C        -2.108971         0.294285         0.097901
 C        -2.746132         1.314442         0.978673
 C        -2.656639         0.905262         2.515631
 C        -1.448547         2.047339         2.701356
 C        -1.217639         1.931498         1.203910
 O        -2.178198        -0.368600         2.674218
 C        -0.828491        -0.472252         2.080674
 H         0.754445         0.724720        -0.365696
 H        -1.956348         0.721255        -0.869041
 H        -2.482234        -0.713922        -0.051326
 H        -3.527795         1.954188         0.590052
 H        -3.566400         0.952904         3.115150
 H        -1.991010         2.991383         2.905405
 H        -0.625168         1.899783         3.475121
 H        -0.731635         2.637926         0.512484
 H        -0.091488        -0.179984         2.738729
 H        -0.847508        -1.543483         1.704683
