19
Iteration:  1055
 O         0.386557        -0.006823         0.082114
 C        -0.738797         0.379319         0.896044
 C        -2.022731         0.321461        -0.000174
 C        -2.600560         1.361077         0.948104
 C        -2.712455         0.933636         2.475182
 C        -1.618528         2.067974         2.770071
 C        -1.220339         1.897200         1.266928
 O        -2.079870        -0.350023         2.785850
 C        -0.845459        -0.519819         2.056785
 H         0.342238         0.617325        -0.685123
 H        -1.767932         0.666445        -0.977414
 H        -2.596289        -0.656086        -0.001577
 H        -3.334946         2.150968         0.689717
 H        -3.671720         0.968040         2.941405
 H        -2.020430         3.010579         2.915025
 H        -0.903317         1.823340         3.507637
 H        -0.813942         2.786970         0.728647
 H         0.051506        -0.466173         2.763495
 H        -0.980330        -1.604527         1.840425
