19
Iteration:    46charge 0 multiplicity 1
 O         0.443457         0.235907         0.305553
 C        -0.805129         0.373961         0.846626
 C        -2.127921         0.315626         0.053878
 C        -2.637402         1.342185         1.048049
 C        -2.586754         0.997898         2.522041
 C        -1.417470         1.938429         2.692713
 C        -1.150703         1.808898         1.201972
 O        -2.244662        -0.375009         2.587363
 C        -0.935019        -0.624174         2.018259
 H         0.619976         1.036164        -0.193388
 H        -2.047400         0.867650        -0.810362
 H        -2.651249        -0.653092        -0.150035
 H        -3.478853         2.005658         0.729916
 H        -3.489778         1.141062         3.165878
 H        -1.790916         2.905637         2.894885
 H        -0.615644         1.660695         3.380507
 H        -0.646028         2.498053         0.549741
 H        -0.039803        -0.629128         2.625856
 H        -1.016250        -1.560039         1.483514
