19
Iteration:    70charge 0 multiplicity 1
 O         0.487232         0.159912         0.166382
 C        -0.801904         0.317104         0.824187
 C        -2.071805         0.365582        -0.030459
 C        -2.584732         1.469763         0.939121
 C        -2.596981         0.907099         2.522719
 C        -1.500490         2.135172         2.815599
 C        -1.210899         1.890246         1.351283
 O        -2.197208        -0.479140         2.656213
 C        -0.971825        -0.658106         2.058888
 H         0.274827         0.175906        -0.785339
 H        -1.995257         0.675362        -0.989434
 H        -2.623495        -0.591358         0.042743
 H        -3.506647         2.181361         0.685727
 H        -3.575393         0.917125         3.110362
 H        -2.025263         3.069007         2.989592
 H        -0.659318         2.082262         3.515539
 H        -0.588728         2.536203         0.748530
 H        -0.116090        -0.499080         2.587917
 H        -0.856419        -1.680346         1.721727
