19
Iteration:  4401charge 0 multiplicity 1
 O         0.450283         0.175578         0.127474
 C        -0.808403         0.372292         0.818227
 C        -2.161994         0.093950         0.075720
 C        -2.692580         1.226614         0.931968
 C        -2.584255         0.957307         2.523603
 C        -1.632186         2.078846         2.613909
 C        -1.243263         1.808636         1.099701
 O        -2.044896        -0.264972         2.840299
 C        -0.759199        -0.325450         2.140178
 H         0.588971        -0.786474         0.036933
 H        -2.124492         0.393614        -0.974398
 H        -2.828634        -0.832436         0.260394
 H        -3.460062         1.890070         0.583727
 H        -3.493870         0.935352         3.120064
 H        -2.190615         3.014038         2.987411
 H        -0.752078         1.988420         3.344326
 H        -0.900793         2.603037         0.330724
 H        -0.024133        -0.047258         2.876466
 H        -0.610372        -1.382193         2.070295
