19
Iteration:   360charge 0 multiplicity 1
 O         0.351910         0.167859         0.082886
 C        -0.790609         0.321734         0.871262
 C        -2.122757         0.287690         0.030694
 C        -2.536483         1.384977         0.948025
 C        -2.658416         0.998347         2.444597
 C        -1.529145         1.949808         2.795399
 C        -1.120720         1.815902         1.266960
 O        -2.231743        -0.392388         2.656099
 C        -0.834081        -0.522623         2.145181
 H         0.962326         0.934107         0.019694
 H        -1.846587         0.685019        -0.961779
 H        -2.705043        -0.556101        -0.091525
 H        -3.338028         2.092479         0.526532
 H        -3.588333         1.136678         3.002843
 H        -1.785050         2.967407         3.120868
 H        -0.817062         1.632271         3.579184
 H        -0.585333         2.584584         0.654349
 H        -0.213739        -0.230521         2.942362
 H        -0.803548        -1.606402         1.914410
