19
Iteration:  1235
 O         0.471224         0.181869         0.115511
 C        -0.771804         0.306893         0.882017
 C        -2.168699         0.181969         0.128494
 C        -2.652127         1.361501         0.958755
 C        -2.651109         0.996192         2.492634
 C        -1.441486         2.100581         2.709338
 C        -1.125312         1.818704         1.246819
 O        -2.231665        -0.407404         2.641987
 C        -0.879454        -0.543888         2.089521
 H         0.492544         1.042528        -0.314432
 H        -2.246808         0.407140        -1.017671
 H        -2.640901        -0.782742         0.242678
 H        -3.390016         1.977646         0.543037
 H        -3.616869         1.095105         3.015100
 H        -1.948918         3.069846         2.900836
 H        -0.648732         2.098349         3.496720
 H        -0.432817         2.585329         0.696593
 H        -0.264059        -0.091099         2.930571
 H        -0.753815        -1.581212         1.854544
