19
Iteration:  4803
 O         0.298481         0.041027         0.015873
 C        -0.745913         0.420137         0.900287
 C        -2.096764         0.119271         0.091185
 C        -2.679774         1.301039         0.875960
 C        -2.627410         0.892173         2.459362
 C        -1.569524         2.078793         2.700278
 C        -1.278512         1.911715         1.135657
 O        -2.086877        -0.324172         2.749543
 C        -0.734899        -0.363707         2.279672
 H         1.012313         0.681032         0.249081
 H        -1.842970         0.128450        -0.951538
 H        -2.707608        -0.790768         0.231596
 H        -3.482406         1.905093         0.568954
 H        -3.496772         0.953937         2.997481
 H        -2.064650         3.019073         2.834108
 H        -0.662666         1.912643         3.295164
 H        -0.631610         2.649184         0.591947
 H         0.007944         0.129790         2.977572
 H        -0.628148        -1.491170         2.204588
