19
Iteration:  4757
 O         0.454209         0.232707         0.012648
 C        -0.730139         0.281556         0.855069
 C        -2.164649         0.134988         0.090336
 C        -2.670712         1.286974         0.906339
 C        -2.623315         0.986160         2.531453
 C        -1.627130         2.201590         2.605762
 C        -1.268139         1.807388         1.199440
 O        -2.013991        -0.278387         2.855187
 C        -0.859307        -0.570671         2.133024
 H         1.143191        -0.153533         0.620176
 H        -2.281931         0.229148        -1.026405
 H        -2.389608        -0.873032         0.264811
 H        -3.604924         1.827583         0.559038
 H        -3.580674         1.005595         3.104978
 H        -2.331018         3.025357         2.564249
 H        -0.902187         2.215154         3.472308
 H        -0.867135         2.602806         0.515326
 H         0.023666        -0.175879         2.768499
 H        -0.825367        -1.617473         1.971835
