19
Iteration:  1899charge 0 multiplicity 1
 O         0.398517        -0.064763         0.049920
 C        -0.792016         0.358562         0.795055
 C        -2.049041         0.216226         0.052940
 C        -2.646358         1.371665         0.956880
 C        -2.680635         1.030844         2.505566
 C        -1.613421         2.008671         2.839540
 C        -1.190523         1.866467         1.318819
 O        -2.150205        -0.306041         2.646355
 C        -0.727799        -0.440818         2.096739
 H         0.622377         0.575467        -0.685301
 H        -1.904516         0.676010        -0.919232
 H        -2.650330        -0.672851        -0.075451
 H        -3.439902         1.914897         0.504886
 H        -3.560220         1.215033         3.113460
 H        -2.151763         3.048707         2.948403
 H        -1.130914         1.791917         3.811733
 H        -0.773237         2.758233         0.819452
 H         0.031773         0.069747         2.952365
 H        -0.515800        -1.510408         2.158830
