19
Iteration:  1689charge 0 multiplicity 1
 O         0.528317         0.235112         0.346568
 C        -0.789215         0.436891         0.769923
 C        -2.191137         0.191992         0.033052
 C        -2.669659         1.270902         1.002042
 C        -2.536228         0.977333         2.558151
 C        -1.375942         2.029353         2.636817
 C        -1.240909         1.822365         1.124623
 O        -2.203207        -0.331888         2.711808
 C        -1.000590        -0.609186         2.060234
 H         0.737972         0.643426        -0.537327
 H        -2.250950         0.610160        -0.963238
 H        -2.464716        -0.891120         0.021902
 H        -3.520791         1.955919         0.909427
 H        -3.395803         1.307264         3.153498
 H        -2.006395         2.963228         2.677218
 H        -0.550116         1.881384         3.347903
 H        -0.934206         2.556563         0.314879
 H        -0.181551        -0.443545         2.824347
 H        -0.887093        -1.587146         1.669183
