19
Iteration:  1248charge 0 multiplicity 1
 O         0.420491         0.206057         0.268492
 C        -0.807372         0.357689         0.851483
 C        -2.174904         0.164619         0.124235
 C        -2.663596         1.389219         0.956399
 C        -2.589446         1.013306         2.495314
 C        -1.482547         2.016313         2.655794
 C        -1.168352         1.797776         1.193929
 O        -2.161432        -0.311880         2.651585
 C        -0.851176        -0.621778         2.060396
 H         0.711175         0.998936        -0.248023
 H        -1.898485         0.522831        -0.933942
 H        -2.730717        -0.786640         0.204384
 H        -3.488811         2.075205         0.674907
 H        -3.454268         1.070611         3.148220
 H        -1.917232         3.018441         2.631958
 H        -0.719845         1.858918         3.452855
 H        -0.682367         2.649714         0.535389
 H        -0.017108        -0.649736         2.749691
 H        -0.997404        -1.588693         1.577938
