19
Iteration:  2392
 O         0.496643         0.258019         0.287770
 C        -0.818435         0.281126         0.859559
 C        -2.176320         0.191824        -0.082981
 C        -2.630794         1.282750         0.925788
 C        -2.585970         1.042096         2.490523
 C        -1.463727         2.108502         2.692772
 C        -1.231419         1.847521         1.212596
 O        -2.126286        -0.304949         2.819132
 C        -0.954883        -0.698425         2.067264
 H         0.429603         0.372221        -0.679773
 H        -2.055196         0.885894        -1.021811
 H        -2.823848        -0.734714        -0.246173
 H        -3.538607         1.886782         0.768576
 H        -3.459889         1.280768         3.176709
 H        -1.723434         3.162767         2.834225
 H        -0.663687         1.800819         3.325917
 H        -0.549028         2.546206         0.687491
 H        -0.016319        -0.542086         2.578071
 H        -1.081879        -1.688092         1.454531
