19
Iteration:  4384
 O         0.377399         0.108347         0.110209
 C        -0.814457         0.335192         0.855575
 C        -2.143928         0.103908         0.092782
 C        -2.751136         1.303566         0.901529
 C        -2.685405         0.974876         2.449540
 C        -1.535213         2.110077         2.622557
 C        -1.323213         1.974168         1.149371
 O        -1.985483        -0.401377         2.791778
 C        -0.676996        -0.352220         2.246186
 H         0.586918        -0.822555         0.357420
 H        -1.951160         0.438734        -0.958349
 H        -2.427412        -0.899664         0.149927
 H        -3.746919         1.758098         0.651683
 H        -3.667234         1.120924         2.934575
 H        -1.801464         3.138913         2.518919
 H        -0.784114         1.904697         3.320755
 H        -0.887985         2.698682         0.508981
 H         0.096577         0.336942         2.684169
 H        -0.421904        -1.494778         2.150887
