19
Iteration:  4212
 O         0.421505         0.242368        -0.002743
 C        -0.711570         0.281082         0.798254
 C        -2.107181         0.002306         0.133866
 C        -2.657460         1.186961         0.990744
 C        -2.697576         1.044239         2.529960
 C        -1.582465         2.094911         2.632727
 C        -1.210673         1.811812         1.213013
 O        -2.145954        -0.228266         2.829727
 C        -0.751898        -0.428440         2.192298
 H         0.113617        -0.023583        -0.886312
 H        -1.973362         0.485982        -0.885643
 H        -2.511876        -1.063565         0.026759
 H        -3.433823         1.911400         0.619607
 H        -3.588296         0.921334         3.167213
 H        -1.957705         3.160040         2.438240
 H        -0.958566         2.163069         3.635903
 H        -0.815629         2.692018         0.527285
 H         0.096758        -0.037378         2.711757
 H        -0.649271        -1.462495         2.089392
