19
Iteration:  4793
 O         0.285217         0.060635         0.023110
 C        -0.792493         0.382240         0.831834
 C        -2.026616         0.081152         0.151317
 C        -2.679218         1.296947         0.869623
 C        -2.676851         0.981330         2.470996
 C        -1.623943         2.075756         2.686902
 C        -1.235644         1.857618         1.250280
 O        -2.040663        -0.262749         2.741923
 C        -0.753399        -0.392565         2.178347
 H         1.186882         0.440226         0.119202
 H        -2.095639         0.265974        -0.887736
 H        -2.431352        -0.918631         0.494368
 H        -3.408357         1.826758         0.372778
 H        -3.567939         0.896963         2.978713
 H        -1.977726         3.086676         2.816290
 H        -0.947768         1.964848         3.535936
 H        -0.712236         2.650681         0.678557
 H         0.010138         0.038745         2.925255
 H        -0.415838        -1.524342         2.008641
