19
Iteration:  1019
 O         0.514664         0.274340         0.249966
 C        -0.837307         0.328002         0.819986
 C        -2.157833         0.225193        -0.067660
 C        -2.627291         1.349311         0.998324
 C        -2.653557         0.995829         2.560000
 C        -1.445770         2.083004         2.730349
 C        -1.226995         1.806905         1.237858
 O        -2.158452        -0.345093         2.709046
 C        -0.911658        -0.606991         2.020106
 H         0.529007        -0.552115        -0.290417
 H        -1.921119         0.619657        -1.034540
 H        -2.822774        -0.646548        -0.015516
 H        -3.434043         2.106776         0.656324
 H        -3.609066         0.992353         3.151237
 H        -1.755822         3.111057         2.989211
 H        -0.646406         1.841383         3.451229
 H        -0.853543         2.411403         0.507908
 H         0.047863        -0.372658         2.579210
 H        -0.805406        -1.662333         1.640526
