19
Iteration:  2587
 O         0.436502        -0.001137         0.010410
 C        -0.740391         0.370079         0.765709
 C        -2.055940         0.199653         0.026210
 C        -2.645270         1.361754         0.981611
 C        -2.736858         1.011497         2.503574
 C        -1.667505         2.113066         2.802801
 C        -1.110326         1.839399         1.323057
 O        -2.181090        -0.330533         2.740657
 C        -0.779095        -0.503967         2.108580
 H         0.597165         0.758966        -0.602503
 H        -1.929448         0.389436        -1.015682
 H        -2.421536        -0.771409         0.261366
 H        -3.409011         2.104569         0.776307
 H        -3.661923         1.063477         3.144242
 H        -1.946208         3.186128         2.694026
 H        -1.002529         1.951047         3.683758
 H        -0.716683         2.682172         0.724367
 H         0.060353        -0.315026         2.791015
 H        -0.731293        -1.563853         1.945946
