19
Iteration:  3592
 O         0.400271         0.176104         0.168300
 C        -0.862776         0.312050         0.883833
 C        -2.144668         0.124604        -0.011436
 C        -2.648575         1.349576         0.922717
 C        -2.621876         0.969247         2.475534
 C        -1.550551         2.127430         2.579610
 C        -1.243251         1.817085         1.158382
 O        -2.055218        -0.288491         2.855942
 C        -0.818141        -0.568828         2.161266
 H         0.945289         0.988223         0.186959
 H        -1.872337         0.437925        -1.014737
 H        -2.596742        -0.902361        -0.066179
 H        -3.573648         1.907804         0.705953
 H        -3.518264         0.899046         3.008817
 H        -1.931351         3.159331         2.741430
 H        -0.811939         1.970672         3.400243
 H        -0.671858         2.558307         0.645672
 H         0.127297        -0.171489         2.631950
 H        -0.839982        -1.740752         1.897485
