19
Iteration:   392charge 0 multiplicity 1
 O         0.400232         0.110403         0.006659
 C        -0.765282         0.335359         0.834060
 C        -2.083891         0.292954         0.204064
 C        -2.548245         1.460393         0.987900
 C        -2.704378         0.971690         2.494692
 C        -1.576154         2.036998         2.795318
 C        -1.078295         1.814479         1.291928
 O        -2.278492        -0.446782         2.565636
 C        -0.841661        -0.517797         2.084500
 H         1.152102         0.706919         0.220184
 H        -2.028682         0.495826        -0.890319
 H        -2.640439        -0.566483         0.280643
 H        -3.454343         2.066861         0.492052
 H        -3.576504         1.113566         3.110954
 H        -2.120808         2.982553         2.742824
 H        -1.000164         1.874427         3.659903
 H        -0.396761         2.590504         0.794015
 H        -0.114792        -0.161948         2.815528
 H        -0.497130        -1.572902         1.858913
