19
Iteration:   974charge 0 multiplicity 1
 O         0.395953         0.197582         0.124146
 C        -0.736726         0.423668         0.804375
 C        -2.139750         0.213870         0.080801
 C        -2.615533         1.415459         0.923989
 C        -2.604710         0.936716         2.468411
 C        -1.398052         1.960580         2.763920
 C        -1.225388         1.881679         1.221035
 O        -2.262012        -0.417836         2.682524
 C        -0.914880        -0.520504         2.081808
 H         1.109589         0.354195         0.782196
 H        -2.213812         0.296900        -1.056136
 H        -2.531855        -0.769610         0.293419
 H        -3.378065         2.229826         0.566318
 H        -3.612413         1.083243         2.977177
 H        -1.664050         2.988914         3.236310
 H        -0.535554         1.711210         3.453590
 H        -0.747696         2.668521         0.671595
 H        -0.010310        -0.290114         2.850497
 H        -0.844525        -1.602700         1.737667
