19
Iteration:  2881charge 0 multiplicity 1
 O         0.396315         0.005963         0.217709
 C        -0.813094         0.442043         0.822313
 C        -2.132299         0.292742         0.129158
 C        -2.626715         1.457569         0.967091
 C        -2.654639         0.924900         2.513942
 C        -1.554801         1.988376         2.765923
 C        -1.115217         1.917737         1.189520
 O        -2.135581        -0.437831         2.559245
 C        -0.789253        -0.436576         2.112032
 H         0.328470         0.160133        -0.729682
 H        -2.179719         0.466413        -1.015329
 H        -2.586643        -0.774449         0.258116
 H        -3.477239         1.974904         0.616216
 H        -3.628092         0.892496         3.011997
 H        -2.029700         2.890697         3.033074
 H        -0.780995         1.803289         3.536788
 H        -0.800404         2.735100         0.582084
 H        -0.188366         0.145556         2.881336
 H        -0.491157        -1.545488         1.955120
