19
Iteration:  1202
 O         0.394125        -0.002638         0.063306
 C        -0.733091         0.384283         0.897186
 C        -2.083803         0.251853         0.077457
 C        -2.667406         1.361093         0.908601
 C        -2.729500         0.967781         2.447859
 C        -1.522941         1.946433         2.779838
 C        -1.149525         1.891357         1.296254
 O        -2.156850        -0.335099         2.674726
 C        -0.817434        -0.382700         2.131395
 H         0.309314         0.544385        -0.723087
 H        -2.030160         0.774823        -0.974904
 H        -2.470201        -0.752482         0.133684
 H        -3.422795         2.014031         0.578217
 H        -3.694828         0.943086         2.998486
 H        -2.068349         2.903998         2.937801
 H        -0.815682         1.726307         3.618324
 H        -0.455243         2.693931         0.760892
 H         0.016047        -0.138476         2.918675
 H        -0.618877        -1.468810         2.039343
