19
Iteration:   280
 O         0.467764         0.149150         0.215137
 C        -0.823905         0.316621         0.854469
 C        -2.114184         0.289788         0.024901
 C        -2.632891         1.438554         0.964364
 C        -2.657542         0.986467         2.487121
 C        -1.482573         1.948460         2.803141
 C        -1.200433         1.844374         1.221906
 O        -2.170469        -0.338277         2.639544
 C        -0.880482        -0.596463         2.065460
 H         0.480849         0.818746        -0.523965
 H        -1.799154         0.822188        -0.862886
 H        -2.638447        -0.628004        -0.159565
 H        -3.403753         2.222093         0.534574
 H        -3.541137         1.072363         3.101139
 H        -1.838891         2.950811         3.098382
 H        -0.830477         1.497568         3.512416
 H        -0.703824         2.638652         0.533278
 H        -0.065336        -0.523614         2.785489
 H        -0.810989        -1.697483         1.813849
