19
Iteration:  3729charge 0 multiplicity 1
 O         0.496814         0.201105         0.320522
 C        -0.808333         0.382249         0.835343
 C        -2.184934         0.093546         0.116276
 C        -2.779023         1.340942         0.996086
 C        -2.589174         0.971277         2.463403
 C        -1.497136         2.092385         2.596036
 C        -1.284440         1.838508         1.075194
 O        -2.065891        -0.330680         2.734226
 C        -0.793531        -0.467003         2.099505
 H         0.440053        -0.072956        -0.607300
 H        -2.030093         0.126087        -1.036551
 H        -2.641958        -0.896278         0.172674
 H        -3.578258         1.899753         0.555657
 H        -3.544571         1.065566         3.111492
 H        -2.101468         2.895359         2.945603
 H        -0.677054         1.845915         3.236037
 H        -0.818751         2.752081         0.580142
 H         0.084387        -0.117263         2.634279
 H        -0.682005        -1.557463         1.919081
