19
Iteration:  3588
 O         0.425427         0.172402         0.163963
 C        -0.874515         0.304047         0.844365
 C        -2.135388         0.157068         0.014523
 C        -2.657454         1.334154         0.935805
 C        -2.638797         0.994674         2.460768
 C        -1.572990         2.139876         2.586948
 C        -1.213210         1.764052         1.159465
 O        -2.066549        -0.286402         2.871068
 C        -0.788789        -0.568588         2.136699
 H         0.926446         0.998591         0.178675
 H        -1.941140         0.237121        -1.099277
 H        -2.699790        -0.767517         0.075412
 H        -3.527700         1.977647         0.727915
 H        -3.606194         0.881163         3.070031
 H        -2.055872         3.143954         2.759522
 H        -0.861658         1.958422         3.440008
 H        -0.652695         2.630101         0.685219
 H         0.098416        -0.293161         2.613525
 H        -0.746416        -1.563925         1.888672
