19
Iteration:  2755
 O         0.440370         0.031408         0.183662
 C        -0.799139         0.372540         0.878655
 C        -2.110289         0.264597         0.072764
 C        -2.611119         1.338831         0.960423
 C        -2.662059         0.937820         2.437710
 C        -1.472214         2.027209         2.753153
 C        -1.278504         1.984658         1.217587
 O        -2.173840        -0.401885         2.668569
 C        -0.831048        -0.474980         2.092936
 H         0.366107         0.534905        -0.656069
 H        -1.854464         0.497440        -0.997337
 H        -2.722135        -0.637486         0.100583
 H        -3.568164         1.900715         0.766309
 H        -3.578883         1.084980         2.995464
 H        -1.758978         3.146187         3.054582
 H        -0.531576         1.813162         3.374227
 H        -0.772216         2.764520         0.534586
 H        -0.082052        -0.064015         2.752345
 H        -0.489808        -1.644285         2.043865
