19
Iteration:  4032charge 0 multiplicity 1
 O         0.425949         0.293925         0.255178
 C        -0.898375         0.314849         0.838341
 C        -2.124003         0.110761         0.028391
 C        -2.694420         1.241681         0.922437
 C        -2.542379         0.964576         2.480134
 C        -1.486470         2.100882         2.546698
 C        -1.350828         1.857541         1.134656
 O        -2.019788        -0.261310         2.907909
 C        -0.833108        -0.497748         2.132996
 H         0.344448        -0.503854        -0.316424
 H        -2.037716         0.483439        -1.036594
 H        -2.522909        -0.932008        -0.015950
 H        -3.544795         1.690871         0.453051
 H        -3.467331         1.132173         3.045580
 H        -1.948458         3.106208         2.776602
 H        -0.542912         1.806723         3.075506
 H        -0.846917         2.463019         0.433129
 H         0.031578        -0.369062         2.720116
 H        -0.704921        -1.612259         1.826451
