19
Iteration:  4810
 O         0.339775         0.062241         0.026208
 C        -0.748896         0.359617         0.945668
 C        -2.185981         0.128656         0.077536
 C        -2.649028         1.306371         0.875742
 C        -2.618438         0.935888         2.465951
 C        -1.533098         2.079851         2.624134
 C        -1.258686         1.930958         1.102472
 O        -2.106495        -0.401287         2.771132
 C        -0.733308        -0.352182         2.293139
 H         1.024534         0.740592         0.266939
 H        -1.739465         0.368870        -0.947512
 H        -2.659715        -0.830910         0.124223
 H        -3.669279         1.899974         0.783565
 H        -3.656331         1.135792         2.978188
 H        -2.135627         2.948496         2.986470
 H        -0.676781         1.921166         3.359683
 H        -0.906241         2.750572         0.435203
 H        -0.042234         0.030234         3.020512
 H        -0.443390        -1.334519         2.173196
