19
Iteration:  2300
 O         0.429083         0.128339         0.041425
 C        -0.720371         0.335803         0.817697
 C        -2.104555         0.146569         0.136346
 C        -2.604062         1.383801         0.941372
 C        -2.677779         1.011900         2.445176
 C        -1.486990         2.080327         2.805200
 C        -1.145510         1.803010         1.217614
 O        -2.215546        -0.376595         2.694599
 C        -0.909151        -0.481892         2.134487
 H         0.520002         0.950235        -0.457303
 H        -2.107066         0.298914        -0.921619
 H        -2.532247        -0.821044         0.381709
 H        -3.432688         1.997161         0.558850
 H        -3.662564         1.087735         3.002535
 H        -1.896833         3.091554         2.874645
 H        -0.850403         1.915973         3.707854
 H        -0.620933         2.535109         0.572109
 H        -0.225129         0.013666         2.896305
 H        -0.724858        -1.573703         2.189173
