19
Iteration:    38
 O         0.516518         0.220583         0.283862
 C        -0.809671         0.377530         0.791009
 C        -2.133946         0.307329         0.075962
 C        -2.651055         1.384418         1.025616
 C        -2.611945         0.953997         2.475436
 C        -1.365302         1.886565         2.703320
 C        -1.199716         1.807199         1.226401
 O        -2.194750        -0.359380         2.633348
 C        -1.041190        -0.556831         2.007156
 H         0.811383         1.125162         0.101030
 H        -2.188615         0.695308        -0.944745
 H        -2.568207        -0.703417         0.128869
 H        -3.590967         2.052125         0.762906
 H        -3.544352         1.094009         3.099973
 H        -1.720478         2.894776         2.966896
 H        -0.575021         1.422117         3.315740
 H        -0.689193         2.580214         0.627662
 H        -0.184960        -0.401195         2.590818
 H        -1.041212        -1.579243         1.578801
