19
Iteration:  4838
 O         0.461344         0.155429         0.169326
 C        -0.798093         0.346978         0.821623
 C        -2.173090         0.101473         0.048978
 C        -2.739935         1.229995         0.965140
 C        -2.617303         0.965829         2.624043
 C        -1.470906         2.138114         2.588640
 C        -1.255359         1.771124         1.115079
 O        -2.091902        -0.279164         2.743936
 C        -0.855409        -0.414047         2.074259
 H         1.028958         0.828519         0.612905
 H        -2.011212         0.384508        -0.960527
 H        -2.461836        -0.969773         0.243301
 H        -3.609492         1.759988         0.832078
 H        -3.510565         1.119506         3.194480
 H        -2.054628         3.059575         2.697744
 H        -0.703660         2.265992         3.326921
 H        -0.852311         2.517840         0.424455
 H         0.038942        -0.171508         2.731428
 H        -0.753488        -1.606752         1.987874
