19
Iteration:  2188
 O         0.390433         0.115571         0.087414
 C        -0.727752         0.350724         0.893279
 C        -2.158418         0.167408         0.154476
 C        -2.639412         1.369784         0.869650
 C        -2.620578         1.030243         2.413011
 C        -1.535267         2.030342         2.725095
 C        -1.144263         1.846226         1.311303
 O        -2.194551        -0.337176         2.677302
 C        -0.816556        -0.512912         2.114191
 H         0.428420         0.693175        -0.678951
 H        -1.934790         0.195590        -0.901424
 H        -2.643522        -0.733324         0.541353
 H        -3.530504         1.990053         0.478400
 H        -3.477628         1.230166         3.112825
 H        -2.201237         3.024377         2.799224
 H        -0.918246         1.800531         3.683682
 H        -0.437527         2.527779         0.758400
 H        -0.002492        -0.098172         2.781885
 H        -0.608482        -1.584986         1.974648
