19
Iteration:  2027charge 0 multiplicity 1
 O         0.436773        -0.032724         0.132059
 C        -0.781019         0.364988         0.819410
 C        -2.156930         0.246200         0.117902
 C        -2.697736         1.346702         0.993281
 C        -2.647599         0.959488         2.501668
 C        -1.607114         2.025727         2.747815
 C        -1.130932         1.867798         1.272925
 O        -2.092759        -0.310737         2.595806
 C        -0.817513        -0.428955         2.086493
 H         0.436658         0.692121        -0.499196
 H        -1.908054         0.689866        -0.866479
 H        -2.599092        -0.793661         0.004984
 H        -3.509695         2.072525         0.659362
 H        -3.653591         0.967587         3.053920
 H        -1.906332         3.050922         2.599703
 H        -0.938216         1.895562         3.591930
 H        -0.537151         2.719889         0.895209
 H        -0.095764         0.051437         2.876793
 H        -0.623445        -1.559989         2.121802
