19
Iteration:  4030
 O         0.422376         0.300930         0.255451
 C        -0.894303         0.330946         0.860108
 C        -2.138906         0.120994         0.035182
 C        -2.689760         1.231464         0.899376
 C        -2.540380         0.956249         2.497025
 C        -1.504354         2.109138         2.547042
 C        -1.334135         1.857149         1.129576
 O        -2.013221        -0.249568         2.898437
 C        -0.843898        -0.525215         2.142274
 H         0.366766        -0.477376        -0.313829
 H        -2.041734         0.474197        -0.981705
 H        -2.534302        -0.955885         0.038190
 H        -3.578985         1.671551         0.410108
 H        -3.449490         1.159684         3.063373
 H        -1.894986         3.104005         2.762447
 H        -0.588681         1.772612         3.017671
 H        -0.789547         2.414012         0.405141
 H         0.055534        -0.410323         2.644640
 H        -0.639550        -1.643974         1.740537
