19
Iteration:  2429charge 0 multiplicity 1
 O         0.495855         0.022719         0.140473
 C        -0.809439         0.431926         0.836427
 C        -2.168930         0.170366         0.110816
 C        -2.664100         1.322502         0.966469
 C        -2.655342         1.088134         2.530589
 C        -1.506567         2.021785         2.706397
 C        -1.165881         1.884310         1.242092
 O        -2.185996        -0.402938         2.640635
 C        -0.845819        -0.465019         2.089289
 H         0.723176         0.825175        -0.394277
 H        -2.100810         0.440738        -0.944759
 H        -2.808986        -0.720860         0.183545
 H        -3.388043         1.961427         0.434055
 H        -3.574454         1.037741         3.033866
 H        -1.798978         3.078579         2.973734
 H        -0.705414         1.772752         3.464603
 H        -0.674642         2.721304         0.750229
 H        -0.176461        -0.195835         2.888499
 H        -0.559203        -1.409911         1.887569
