19
Iteration:  3331charge 0 multiplicity 1
 O         0.430459         0.247344         0.152539
 C        -0.793202         0.358835         0.773472
 C        -2.104644         0.210086         0.021260
 C        -2.649251         1.322141         0.975416
 C        -2.669324         1.038104         2.473740
 C        -1.520861         1.948736         2.703545
 C        -1.172930         1.802921         1.203444
 O        -2.134899        -0.330910         2.762274
 C        -0.882634        -0.506184         2.100198
 H         1.004502        -0.377835         0.616164
 H        -2.245509         0.574783        -1.026308
 H        -2.760566        -0.781296        -0.001758
 H        -3.386406         2.029977         0.512934
 H        -3.540553         1.054680         3.124759
 H        -1.752102         3.046548         2.883466
 H        -0.844137         1.608344         3.561379
 H        -0.758566         2.518092         0.491595
 H        -0.182116        -0.040317         2.874489
 H        -0.648235        -1.501814         1.870667
