19
Iteration:  1483charge 0 multiplicity 1
 O         0.424054         0.061760         0.085619
 C        -0.744543         0.298244         0.876491
 C        -2.160677         0.175052         0.120595
 C        -2.603255         1.448996         0.944044
 C        -2.698180         0.992619         2.478616
 C        -1.596446         2.024202         2.772506
 C        -1.135217         1.815298         1.235716
 O        -2.145657        -0.360951         2.562540
 C        -0.780902        -0.386970         2.210536
 H         0.240311         0.655994        -0.642331
 H        -2.052144         0.506548        -0.951140
 H        -2.657926        -0.851554         0.284773
 H        -3.472465         1.893710         0.564420
 H        -3.584853         0.999763         3.094582
 H        -2.102077         3.008268         2.902561
 H        -0.973828         1.807692         3.621625
 H        -0.519892         2.617954         0.683217
 H        -0.094924         0.107267         2.827223
 H        -0.500784        -1.489234         2.138515
