19
Iteration:  2625
 O         0.371234         0.140708         0.201798
 C        -0.786016         0.358049         0.874864
 C        -2.126609         0.189698         0.024741
 C        -2.694620         1.383314         1.024604
 C        -2.635448         0.991954         2.438735
 C        -1.542082         2.092185         2.663789
 C        -1.118286         1.814817         1.189421
 O        -2.123402        -0.353247         2.750147
 C        -0.800828        -0.589227         2.067930
 H         0.891864         0.918094         0.001624
 H        -2.114276         0.480997        -1.064574
 H        -2.711889        -0.751298         0.076551
 H        -3.509491         2.077796         0.712944
 H        -3.569986         1.054655         2.974742
 H        -1.828472         3.111159         2.801746
 H        -0.969887         1.750957         3.500849
 H        -0.747786         2.675473         0.616136
 H        -0.020905        -0.300410         2.734813
 H        -0.835261        -1.627276         1.569811
