19
Iteration:   789
 O         0.406877         0.078389         0.078564
 C        -0.788525         0.405400         0.779785
 C        -2.035815         0.416427        -0.005578
 C        -2.630730         1.386090         1.002443
 C        -2.638488         0.976283         2.488720
 C        -1.566383         1.970359         2.821133
 C        -1.122344         1.874969         1.291151
 O        -2.205494        -0.428434         2.708309
 C        -0.858144        -0.509268         2.058026
 H         0.619658        -0.826471         0.405847
 H        -1.941387         0.739584        -1.069857
 H        -2.647677        -0.489101        -0.367284
 H        -3.455765         2.170225         0.617419
 H        -3.621593         0.992884         3.125434
 H        -2.046326         2.926181         2.873141
 H        -0.992271         1.891249         3.718603
 H        -0.556540         2.693181         0.879155
 H        -0.130548        -0.259814         2.779847
 H        -0.662554        -1.595267         1.776155
