19
Iteration:   687
 O         0.384016         0.055069         0.183393
 C        -0.780428         0.372002         0.825665
 C        -2.044294         0.412246        -0.091997
 C        -2.550505         1.396941         0.984099
 C        -2.660019         0.887957         2.509511
 C        -1.535300         2.048860         2.767808
 C        -1.170518         1.845716         1.296945
 O        -2.195455        -0.439173         2.739809
 C        -0.858530        -0.499854         2.082339
 H         0.131169        -0.211949        -0.713358
 H        -1.756753         1.060795        -0.982348
 H        -2.588108        -0.477787        -0.323301
 H        -3.317582         2.182060         0.786714
 H        -3.592119         0.851450         2.938902
 H        -2.063759         3.030061         2.854304
 H        -0.841819         2.162714         3.589483
 H        -0.809085         2.601318         0.570106
 H        -0.100187        -0.199000         2.780284
 H        -0.779808        -1.544406         1.804242
