19
Iteration:  1739
 O         0.410240         0.056073         0.095233
 C        -0.739661         0.332089         0.823335
 C        -2.131524         0.175746         0.078803
 C        -2.653458         1.313141         0.955737
 C        -2.680937         0.992093         2.514314
 C        -1.574304         2.054734         2.720401
 C        -1.122711         1.890892         1.257629
 O        -2.128573        -0.307814         2.703652
 C        -0.864410        -0.461108         2.097628
 H         0.728587         0.923774        -0.181889
 H        -1.914284         0.511228        -0.969017
 H        -2.690591        -0.751020         0.105814
 H        -3.544578         1.889845         0.670673
 H        -3.604299         1.190054         2.985501
 H        -2.084183         2.939374         3.003361
 H        -0.814567         1.800645         3.509213
 H        -0.575344         2.725174         0.771189
 H         0.055001        -0.339202         2.767215
 H        -0.756799        -1.554260         1.740739
