19
Iteration:  3252charge 0 multiplicity 1
 O         0.392544         0.184904         0.173288
 C        -0.828445         0.272807         0.762048
 C        -2.127286         0.217180        -0.023245
 C        -2.603797         1.422175         0.876649
 C        -2.705773         1.001017         2.403724
 C        -1.506645         2.022545         2.755693
 C        -1.177370         1.802726         1.271639
 O        -2.078616        -0.304159         2.814881
 C        -0.843283        -0.588610         2.164102
 H         0.687186         1.095925         0.051418
 H        -1.840128         0.403714        -1.083250
 H        -2.847444        -0.746426        -0.189860
 H        -3.524203         2.048492         0.757706
 H        -3.770962         1.047645         2.799029
 H        -1.841575         3.067781         2.881770
 H        -0.855798         1.482533         3.539004
 H        -0.678475         2.580006         0.661005
 H         0.085852        -0.345419         2.862877
 H        -0.822625        -1.641065         1.945465
