19
Iteration:    36charge 0 multiplicity 1
 O         0.536587         0.215959         0.275032
 C        -0.810842         0.382305         0.781615
 C        -2.144015         0.301668         0.061103
 C        -2.662517         1.399573         1.007942
 C        -2.618950         0.946384         2.473188
 C        -1.354277         1.881346         2.714357
 C        -1.206371         1.815450         1.229963
 O        -2.192396        -0.361759         2.655719
 C        -1.044902        -0.545536         1.984939
 H         0.872342         1.109721         0.177301
 H        -2.203043         0.580041        -0.894801
 H        -2.574819        -0.724458         0.184297
 H        -3.577802         2.066173         0.751468
 H        -3.561418         1.084281         3.086282
 H        -1.644504         2.848511         3.035120
 H        -0.581136         1.423696         3.328261
 H        -0.727572         2.607243         0.682604
 H        -0.280691        -0.365617         2.610993
 H        -1.022763        -1.588644         1.668663
