19
Iteration:  1840charge 0 multiplicity 1
 O         0.517066         0.266899         0.315135
 C        -0.812658         0.388378         0.866106
 C        -2.124861         0.186979         0.033555
 C        -2.701418         1.304230         1.029602
 C        -2.595629         0.961122         2.564094
 C        -1.375579         2.131405         2.657509
 C        -1.234442         1.824041         1.159880
 O        -2.189671        -0.318874         2.685209
 C        -0.962815        -0.654594         1.975289
 H         0.460881         0.066433        -0.647065
 H        -2.037060         0.565868        -1.006807
 H        -2.658850        -0.791174         0.098332
 H        -3.590693         1.929721         0.631953
 H        -3.484873         1.144367         3.239754
 H        -1.659405         3.204851         2.867352
 H        -0.543590         1.785526         3.341519
 H        -0.818471         2.335401         0.301878
 H        -0.062120        -0.492985         2.782421
 H        -1.051406        -1.724132         1.523798
