19
Iteration:  1876charge 0 multiplicity 1
 O         0.460820         0.056309         0.138014
 C        -0.778305         0.395931         0.848364
 C        -2.130286         0.295690         0.035680
 C        -2.617121         1.380879         0.948875
 C        -2.696597         0.889539         2.475783
 C        -1.556001         2.078005         2.719867
 C        -1.123503         1.825822         1.213396
 O        -2.123414        -0.315337         2.794662
 C        -0.869679        -0.518619         2.047544
 H         0.187896         0.410476        -0.724386
 H        -2.091216         0.570155        -1.011283
 H        -2.671820        -0.678576         0.118103
 H        -3.461149         2.079701         0.751488
 H        -3.753582         0.838572         2.900512
 H        -2.004955         3.140704         3.007999
 H        -0.964580         1.735052         3.609311
 H        -0.614589         2.607056         0.673457
 H         0.088264        -0.222353         2.848764
 H        -0.746657        -1.621243         1.991883
