19
Iteration:  4062
 O         0.550755         0.156009         0.100638
 C        -0.812086         0.357745         0.766267
 C        -2.160914         0.145706         0.085768
 C        -2.702633         1.211643         1.017572
 C        -2.620854         1.020312         2.591686
 C        -1.584417         2.112557         2.579189
 C        -1.266977         1.809781         1.150571
 O        -2.098636        -0.344934         2.787331
 C        -0.780282        -0.314129         2.139807
 H         0.320047        -0.756762        -0.156298
 H        -2.301137         0.514541        -0.886761
 H        -2.570047        -0.920037         0.102122
 H        -3.525254         1.688717         0.447483
 H        -3.457877         1.012213         3.278091
 H        -1.985650         3.088654         2.750868
 H        -0.798750         2.003035         3.297689
 H        -0.804841         2.520963         0.487670
 H        -0.190496         0.118046         2.925186
 H        -0.672343        -1.479337         2.136703
