19
Iteration:  3796
 O         0.389051         0.178138        -0.036312
 C        -0.793737         0.323390         0.858156
 C        -2.091933         0.077754         0.106002
 C        -2.672031         1.253347         0.903563
 C        -2.698726         1.010934         2.452368
 C        -1.628104         2.106401         2.676023
 C        -1.217481         1.877627         1.228396
 O        -2.065972        -0.271835         2.868264
 C        -0.764896        -0.467834         2.166665
 H         1.215240         0.154272         0.514078
 H        -1.901521         0.372014        -0.988687
 H        -2.469763        -0.973271         0.013193
 H        -3.390660         1.992525         0.639959
 H        -3.645364         1.118624         3.042748
 H        -2.078713         3.050433         2.821267
 H        -0.909878         1.776642         3.398380
 H        -0.856225         2.520892         0.375310
 H         0.098835        -0.281191         2.771082
 H        -0.729921        -1.522124         1.965894
