19
Iteration:  1251
 O         0.423515         0.207058         0.286205
 C        -0.819073         0.361261         0.862960
 C        -2.168567         0.175616         0.109355
 C        -2.643836         1.375422         0.939121
 C        -2.586298         1.042851         2.498835
 C        -1.488247         2.001375         2.639396
 C        -1.196157         1.817481         1.188319
 O        -2.134223        -0.322476         2.663646
 C        -0.852200        -0.634239         2.039786
 H         0.786095         0.935390        -0.255022
 H        -1.936048         0.537408        -0.853486
 H        -2.724857        -0.800076         0.211584
 H        -3.512368         2.127126         0.752096
 H        -3.436556         1.038708         3.188779
 H        -1.889365         3.023411         2.710119
 H        -0.786428         1.813468         3.454367
 H        -0.731522         2.544257         0.495478
 H        -0.015830        -0.565785         2.752073
 H        -1.225686        -1.601619         1.577118
