19
Iteration:  2105
 O         0.573009         0.139423         0.333338
 C        -0.827513         0.330060         0.712829
 C        -2.201986         0.231198        -0.019591
 C        -2.682798         1.284495         0.987565
 C        -2.602214         0.966298         2.540220
 C        -1.431815         2.089968         2.649343
 C        -1.259152         1.924194         1.206937
 O        -2.120204        -0.316962         2.797143
 C        -0.939684        -0.577764         2.013278
 H         0.672644         0.388613        -0.611522
 H        -2.230920         0.671686        -1.043015
 H        -2.580035        -0.807841        -0.108861
 H        -3.619075         1.737833         0.720878
 H        -3.494621         1.219448         3.118635
 H        -2.033041         2.983466         2.865469
 H        -0.658261         2.003204         3.376509
 H        -0.710056         2.629127         0.625508
 H         0.058090        -0.437014         2.604860
 H        -1.199401        -1.645206         1.847999
