19
Iteration:  4289charge 0 multiplicity 1
 O         0.473617         0.124122         0.196205
 C        -0.841676         0.381289         0.745683
 C        -2.137025         0.073584         0.011542
 C        -2.690391         1.231778         1.003084
 C        -2.614120         1.005946         2.603295
 C        -1.480305         2.134284         2.586682
 C        -1.324722         1.808109         1.064702
 O        -2.126732        -0.302118         2.863574
 C        -0.753027        -0.431960         2.181037
 H         0.803038         0.910587        -0.320167
 H        -2.072424         0.582119        -0.974060
 H        -2.701668        -0.927803         0.041695
 H        -3.637442         1.633314         0.582031
 H        -3.555397         0.934127         3.182461
 H        -2.157326         3.027238         2.777190
 H        -0.468463         2.076931         3.199051
 H        -1.011144         2.649100         0.286495
 H         0.180671        -0.147683         2.623969
 H        -0.731248        -1.446157         1.863596
