19
Iteration:  1639
 O         0.380893         0.037450         0.115854
 C        -0.837548         0.267443         0.814599
 C        -2.066677         0.282242         0.078779
 C        -2.534961         1.393639         0.921085
 C        -2.720076         0.936955         2.456408
 C        -1.650887         2.050254         2.736961
 C        -1.152788         1.888940         1.289335
 O        -2.107147        -0.357451         2.782110
 C        -0.758230        -0.456374         2.126742
 H         0.257609         0.492314        -0.730443
 H        -2.061752         0.638502        -1.002407
 H        -2.629286        -0.674620        -0.007852
 H        -3.275256         2.146166         0.562947
 H        -3.739434         1.047802         2.959120
 H        -2.048211         3.056137         2.591867
 H        -1.039718         1.787808         3.593119
 H        -0.572268         2.655050         0.714523
 H         0.045059         0.031490         2.625170
 H        -0.558289        -1.542158         1.809283
