19
Iteration:  2034
 O         0.406896        -0.013266         0.097803
 C        -0.726238         0.357147         0.788153
 C        -2.115912         0.227944         0.121063
 C        -2.673960         1.376734         0.996859
 C        -2.726061         0.965412         2.460618
 C        -1.564063         1.991638         2.748112
 C        -1.132367         1.836572         1.324445
 O        -2.162866        -0.304082         2.622585
 C        -0.747092        -0.422857         2.148626
 H         0.521474         0.657216        -0.629510
 H        -2.073011         0.516108        -0.950409
 H        -2.774099        -0.654025         0.122608
 H        -3.459112         2.060261         0.566438
 H        -3.641977         0.983575         3.068568
 H        -2.118719         2.946100         2.673608
 H        -0.718048         1.983369         3.497626
 H        -0.669141         2.776107         0.846043
 H        -0.136679         0.150839         2.931052
 H        -0.503275        -1.459636         1.854194
