19
Iteration:  1675
 O         0.531677         0.174607         0.281084
 C        -0.790309         0.342671         0.819472
 C        -2.077241         0.177255         0.066611
 C        -2.717163         1.316666         1.011197
 C        -2.650230         1.042703         2.551867
 C        -1.453010         2.108813         2.656408
 C        -1.253047         1.871148         1.167658
 O        -2.187719        -0.369245         2.746796
 C        -0.901244        -0.590654         1.962009
 H         0.488198         0.473463        -0.627804
 H        -2.052080         0.637870        -0.904717
 H        -2.562828        -0.764635         0.162656
 H        -3.441343         1.894547         0.420038
 H        -3.491622         1.057101         3.172609
 H        -1.710900         3.101622         3.002116
 H        -0.567299         1.930357         3.318170
 H        -0.869298         2.618368         0.593791
 H        -0.054029        -0.586121         2.520207
 H        -1.032085        -1.588011         1.644448
