19
Iteration:  3873
 O         0.401795         0.360236         0.215916
 C        -0.797354         0.369310         0.849943
 C        -2.112704         0.011414         0.098402
 C        -2.723973         1.288796         0.873918
 C        -2.598302         1.016040         2.532724
 C        -1.465971         2.038429         2.580393
 C        -1.285206         1.849590         1.056704
 O        -2.092188        -0.331469         2.862144
 C        -0.831741        -0.469644         2.169276
 H         0.434203        -0.467369        -0.325354
 H        -2.021141         0.229190        -0.992686
 H        -2.436028        -1.057555         0.010752
 H        -3.572796         1.901535         0.574544
 H        -3.613453         1.087934         2.915337
 H        -1.759054         3.045714         2.792457
 H        -0.655285         1.785405         3.274058
 H        -0.633535         2.582070         0.477475
 H         0.026613        -0.232999         2.730491
 H        -0.839201        -1.683360         1.928069
