19
Iteration:  4648
 O         0.379588         0.214676        -0.031005
 C        -0.736833         0.348572         0.911443
 C        -2.072056         0.101655         0.113512
 C        -2.610686         1.296881         0.875263
 C        -2.677773         0.973913         2.495442
 C        -1.660371         2.095749         2.594057
 C        -1.231757         1.777077         1.232354
 O        -2.034930        -0.259043         2.883805
 C        -0.804509        -0.445085         2.222709
 H         0.177765        -0.396122        -0.750717
 H        -2.010812         0.284060        -1.025860
 H        -2.556505        -0.864101         0.394228
 H        -3.336238         1.977094         0.345144
 H        -3.673658         0.797142         2.920280
 H        -2.060689         3.107545         2.610071
 H        -1.102763         1.910040         3.565231
 H        -0.807505         2.617708         0.628647
 H         0.007380        -0.059490         2.898101
 H        -0.516434        -1.556585         1.998405
