19
Iteration:  3990charge 0 multiplicity 1
 O         0.492272         0.297722         0.066358
 C        -0.740276         0.356117         0.827285
 C        -2.180862         0.060434         0.152815
 C        -2.635463         1.153612         0.947103
 C        -2.628709         1.014452         2.579264
 C        -1.605521         2.187185         2.625822
 C        -1.192912         1.784662         1.150993
 O        -2.109775        -0.260504         2.781746
 C        -0.867036        -0.516101         2.064403
 H         0.850671        -0.629631         0.041271
 H        -2.419668         0.250269        -0.940340
 H        -2.649576        -0.881871         0.356492
 H        -3.434931         1.799839         0.702874
 H        -3.564278         0.997141         3.169914
 H        -2.135502         3.191076         2.715238
 H        -0.793801         2.162160         3.406651
 H        -0.752835         2.529901         0.494784
 H        -0.060115        -0.072673         2.816353
 H        -0.843293        -1.532215         2.051824
