19
Iteration:  2887
 O         0.380283         0.045289         0.213181
 C        -0.785208         0.424788         0.843857
 C        -2.151386         0.259275         0.068015
 C        -2.594553         1.384572         0.963008
 C        -2.629909         0.920509         2.479008
 C        -1.488695         1.998094         2.748417
 C        -1.162492         1.912459         1.198903
 O        -2.156899        -0.441976         2.593793
 C        -0.814336        -0.400456         2.141026
 H         0.195474         0.265473        -0.721494
 H        -1.927553         0.476051        -0.955026
 H        -2.640233        -0.634913         0.327675
 H        -3.478106         2.052369         0.682581
 H        -3.571695         1.001326         3.047591
 H        -2.017685         2.995551         2.944607
 H        -0.865247         1.655933         3.600146
 H        -0.790267         2.901474         0.778098
 H        -0.159580        -0.083017         2.940885
 H        -0.694355        -1.396776         1.696216
