19
Iteration:     4
 O         0.394753         0.167449         0.097116
 C        -0.783650         0.381299         0.834689
 C        -2.126833         0.288812         0.007253
 C        -2.591057         1.397522         0.960756
 C        -2.630787         0.968320         2.522290
 C        -1.505207         1.972953         2.787620
 C        -1.167056         1.861290         1.279857
 O        -2.203802        -0.393286         2.660878
 C        -0.859183        -0.549598         2.026453
 H         1.132373         0.328503         0.729731
 H        -2.091041         0.683098        -0.942896
 H        -2.616185        -0.710911        -0.010168
 H        -3.459627         2.091284         0.630918
 H        -3.590384         1.074468         3.108451
 H        -1.886417         2.927332         3.107185
 H        -0.802571         1.677454         3.575513
 H        -0.657007         2.659757         0.761183
 H        -0.135504        -0.503024         2.748121
 H        -0.884869        -1.577741         1.688556
