19
Iteration:  2365
 O         0.521171         0.092033         0.249557
 C        -0.764262         0.421326         0.808074
 C        -2.069924         0.276303         0.015073
 C        -2.643319         1.271031         0.982552
 C        -2.637252         1.009482         2.538451
 C        -1.534271         2.020476         2.677680
 C        -1.251244         1.858318         1.187519
 O        -2.090068        -0.297958         2.806834
 C        -1.029597        -0.601628         2.007448
 H         0.523989         0.083386        -0.718766
 H        -2.215796         0.660368        -0.924956
 H        -2.585218        -0.670784        -0.008138
 H        -3.404101         1.999479         0.669142
 H        -3.436425         1.200997         3.269668
 H        -1.888109         3.075068         2.714027
 H        -0.734824         2.015552         3.492631
 H        -0.897654         2.725273         0.623666
 H        -0.002676        -0.467115         2.507007
 H        -0.991614        -1.510078         1.444248
