19
Iteration:  4442charge 0 multiplicity 1
 O         0.436821         0.399563         0.141958
 C        -0.784926         0.291395         0.944340
 C        -2.149838         0.038464         0.146320
 C        -2.665715         1.214152         0.879102
 C        -2.560574         1.020526         2.518806
 C        -1.526984         2.185043         2.540724
 C        -1.322922         1.821699         1.080261
 O        -2.062991        -0.255764         2.857897
 C        -0.864756        -0.630819         2.165892
 H         0.435734        -0.243424        -0.573990
 H        -1.878786         0.078532        -0.877645
 H        -2.594025        -0.965544         0.223849
 H        -3.610835         1.735908         0.616995
 H        -3.390068         1.268362         3.189144
 H        -1.992708         3.145639         2.687886
 H        -0.782298         2.152723         3.377601
 H        -0.822616         2.466279         0.271466
 H         0.196530        -0.682301         2.640621
 H        -0.929550        -1.643556         1.711148
