19
Iteration:  4318
 O         0.369452         0.228626         0.122577
 C        -0.848161         0.318970         0.860286
 C        -2.115755        -0.003369         0.082659
 C        -2.695968         1.266540         0.929544
 C        -2.653187         1.057853         2.473209
 C        -1.522876         2.107440         2.587453
 C        -1.274925         1.850662         1.112632
 O        -2.003184        -0.211066         2.864083
 C        -0.768048        -0.589100         2.163649
 H         0.988424         0.914721         0.392026
 H        -1.951821         0.246577        -0.994791
 H        -2.620266        -0.897957         0.205683
 H        -3.601696         1.786876         0.574436
 H        -3.553789         0.897336         3.060444
 H        -1.999538         3.056372         2.699839
 H        -0.725427         1.963744         3.243630
 H        -0.917727         2.666023         0.548047
 H         0.202181        -0.514689         2.778810
 H        -1.030760        -1.619214         1.755024
