19
Iteration:   732charge 0 multiplicity 1
 O         0.572381         0.363760         0.231911
 C        -0.766094         0.341180         0.770963
 C        -2.186073         0.165935         0.072725
 C        -2.603086         1.378643         0.978549
 C        -2.682897         0.965540         2.490398
 C        -1.377183         1.975104         2.771919
 C        -1.139215         1.851333         1.248313
 O        -2.251119        -0.355624         2.681710
 C        -1.056029        -0.579671         1.958323
 H         0.546271        -0.517822        -0.156677
 H        -2.204467         0.467728        -1.003809
 H        -2.660256        -0.695835         0.474237
 H        -3.257586         2.238897         0.550532
 H        -3.589195         0.905222         3.040289
 H        -1.594101         3.020048         3.067002
 H        -0.549744         1.612602         3.359820
 H        -0.559270         2.668311         0.787036
 H        -0.343779        -0.464038         2.719883
 H        -1.098252        -1.647080         1.609973
