19
Iteration:  1945charge 0 multiplicity 1
 O         0.503557         0.200951         0.260082
 C        -0.803651         0.325786         0.821563
 C        -2.174930         0.208352         0.044147
 C        -2.704767         1.364397         0.963307
 C        -2.596272         0.980551         2.522572
 C        -1.485601         2.011508         2.731644
 C        -1.150734         1.847779         1.141577
 O        -2.186446        -0.370902         2.719042
 C        -0.903947        -0.532439         2.029607
 H         0.584006         0.737860        -0.565940
 H        -2.203379         0.449407        -1.024872
 H        -2.620219        -0.758605         0.173140
 H        -3.509466         1.965851         0.625464
 H        -3.455249         1.184039         3.080957
 H        -1.849415         3.028420         2.931180
 H        -0.629177         1.872285         3.397889
 H        -0.519613         2.557994         0.510394
 H        -0.087255        -0.312223         2.897399
 H        -0.843607        -1.595572         1.821116
