19
Iteration:  2376charge 0 multiplicity 1
 O         0.537241         0.168765         0.274071
 C        -0.800749         0.374330         0.765156
 C        -2.071876         0.244524        -0.014690
 C        -2.724233         1.338813         1.006267
 C        -2.641613         0.994496         2.601923
 C        -1.473695         2.088095         2.675473
 C        -1.202920         1.783625         1.170962
 O        -2.133468        -0.281485         2.848930
 C        -0.970777        -0.607664         1.938429
 H         0.505283         0.138143        -0.713508
 H        -1.903607         0.680948        -0.933957
 H        -2.394066        -0.783769        -0.067231
 H        -3.448605         2.042638         0.567592
 H        -3.626604         0.960083         3.083419
 H        -1.983987         3.063020         2.803181
 H        -0.657842         1.854223         3.435641
 H        -0.862264         2.477212         0.397919
 H        -0.074523        -0.728141         2.649373
 H        -1.276768        -1.605874         1.661941
