19
Iteration:  3308charge 0 multiplicity 1
 O         0.364708         0.073119         0.158569
 C        -0.765202         0.424532         0.820940
 C        -2.113323         0.189488         0.162438
 C        -2.648136         1.411258         0.891375
 C        -2.567556         0.931644         2.476919
 C        -1.523561         2.114454         2.680050
 C        -1.239578         1.951795         1.258265
 O        -2.192247        -0.415940         2.624511
 C        -0.794043        -0.509991         2.074224
 H         1.093732         0.183188         0.827025
 H        -1.983319         0.471793        -0.934435
 H        -2.690560        -0.900749         0.106212
 H        -3.635003         1.919928         0.635180
 H        -3.477806         0.977445         3.137202
 H        -2.015315         2.967060         3.221323
 H        -0.619468         1.838915         3.372089
 H        -0.664712         2.579178         0.562938
 H        -0.152847        -0.337206         3.032140
 H        -0.699886        -1.487218         1.690604
