19
Iteration:  3185charge 0 multiplicity 1
 O         0.491747         0.127630         0.264257
 C        -0.807641         0.374961         0.839352
 C        -2.096825         0.262870         0.041688
 C        -2.694730         1.399860         0.962906
 C        -2.649210         0.981047         2.492898
 C        -1.523757         1.983755         2.711889
 C        -1.209758         1.903792         1.141381
 O        -2.187194        -0.404926         2.707360
 C        -0.809207        -0.485880         2.086640
 H         0.478430        -0.343796        -0.601542
 H        -2.008374         0.655943        -0.967585
 H        -2.662592        -0.719240        -0.067534
 H        -3.519369         1.958040         0.591172
 H        -3.525656         0.921017         3.145855
 H        -1.860187         3.000336         2.838858
 H        -0.751489         1.650148         3.413700
 H        -0.700671         2.765912         0.704473
 H        -0.020042        -0.101152         2.795108
 H        -0.706952        -1.509458         1.847243
