19
Iteration:  4764charge 0 multiplicity 1
 O         0.485744         0.197643        -0.025702
 C        -0.751366         0.285667         0.803413
 C        -2.162662         0.085892         0.121654
 C        -2.649565         1.283807         0.936898
 C        -2.638201         0.956552         2.537509
 C        -1.683833         2.206156         2.683664
 C        -1.239038         1.813782         1.170939
 O        -2.051736        -0.223265         2.826102
 C        -0.803776        -0.537238         2.142724
 H         1.280639        -0.034095         0.503040
 H        -2.322052         0.382442        -0.931373
 H        -2.601933        -0.925803         0.424808
 H        -3.514673         1.947891         0.553788
 H        -3.708737         0.838072         2.985371
 H        -2.232856         3.205570         2.614429
 H        -1.026363         2.212770         3.560546
 H        -0.795150         2.535755         0.504981
 H        -0.028823        -0.378021         2.847820
 H        -0.745606        -1.619637         1.923625
