19
Iteration:  1822charge 0 multiplicity 1
 O         0.581528         0.245000         0.299735
 C        -0.785644         0.379073         0.770036
 C        -2.171496         0.194274         0.083343
 C        -2.708473         1.306393         0.974618
 C        -2.574816         1.062965         2.572464
 C        -1.376604         1.984186         2.631193
 C        -1.226259         1.853747         1.100943
 O        -2.229249        -0.409073         2.764123
 C        -0.950736        -0.550479         2.023408
 H         0.595442         0.070988        -0.674247
 H        -2.325481         0.674178        -0.872896
 H        -2.560231        -0.835576         0.001733
 H        -3.578759         1.886492         0.665999
 H        -3.541596         1.320882         3.081944
 H        -1.898966         2.954196         2.988121
 H        -0.542223         1.694860         3.285280
 H        -0.857575         2.826772         0.776285
 H        -0.170722        -0.308928         2.726070
 H        -1.119817        -1.536381         1.696085
