19
Iteration:  3211charge 0 multiplicity 1
 O         0.573010         0.110223         0.276213
 C        -0.766803         0.409828         0.831082
 C        -2.120411         0.127952         0.047294
 C        -2.665736         1.301580         1.090449
 C        -2.608279         0.970194         2.537995
 C        -1.436047         2.138334         2.752056
 C        -1.254311         1.887154         1.183500
 O        -2.277704        -0.348610         2.581321
 C        -0.895295        -0.529878         1.995445
 H         0.583161         0.306176        -0.694727
 H        -2.281309         0.492202        -0.949270
 H        -2.422186        -0.860877         0.098483
 H        -3.504528         2.020658         0.756564
 H        -3.546599         0.921712         3.139479
 H        -2.002911         3.097368         2.799470
 H        -0.519594         2.071564         3.387890
 H        -0.812056         2.715827         0.600594
 H        -0.173322        -0.151980         2.762488
 H        -0.978019        -1.579287         1.690354
