19
Iteration:   440
 O         0.461211         0.209738         0.215809
 C        -0.815313         0.391424         0.784550
 C        -2.105975         0.351933        -0.096934
 C        -2.624291         1.322727         0.972095
 C        -2.620295         0.949323         2.583033
 C        -1.489122         1.995447         2.668079
 C        -1.174890         1.853677         1.189211
 O        -2.182025        -0.416570         2.878449
 C        -0.998237        -0.570372         1.976444
 H         1.137174        -0.261659         0.737555
 H        -1.885079         0.931490        -0.953006
 H        -2.524916        -0.627548        -0.469063
 H        -3.239268         2.140904         0.711442
 H        -3.580142         1.243878         3.142533
 H        -1.919706         2.996417         2.820508
 H        -0.546499         1.696089         3.305419
 H        -0.836971         2.661979         0.619998
 H        -0.118535        -0.528104         2.615048
 H        -0.919485        -1.589852         1.609063
