19
Iteration:  1415charge 0 multiplicity 1
 O         0.548271         0.108024         0.403296
 C        -0.808073         0.323342         0.755574
 C        -2.133660         0.229067        -0.075448
 C        -2.663686         1.298962         1.014422
 C        -2.576569         0.953325         2.593959
 C        -1.521069         2.085135         2.688186
 C        -1.293988         1.915489         1.132773
 O        -2.046708        -0.298868         2.795609
 C        -0.999034        -0.588306         1.949099
 H         0.691018         0.605766        -0.440799
 H        -2.260494         0.723112        -1.112322
 H        -2.677578        -0.811796        -0.011217
 H        -3.607031         1.933781         0.797793
 H        -3.558695         1.087833         3.046069
 H        -2.072428         3.058400         2.763480
 H        -0.589216         2.131090         3.295097
 H        -0.727590         2.658291         0.386872
 H        -0.079131        -0.442686         2.417128
 H        -1.080755        -1.614690         1.549728
