19
Iteration:  2612charge 0 multiplicity 1
 O         0.388758         0.059964         0.076175
 C        -0.784646         0.344172         0.836705
 C        -2.127147         0.228792         0.132597
 C        -2.562020         1.346557         0.882674
 C        -2.659654         0.971440         2.484337
 C        -1.636239         2.085603         2.774886
 C        -1.163303         1.913352         1.255518
 O        -2.103414        -0.300871         2.731061
 C        -0.818846        -0.578482         2.082615
 H         0.734232         0.960431        -0.113352
 H        -1.908609         0.493433        -0.867614
 H        -2.585853        -0.698973         0.264394
 H        -3.418514         1.935815         0.599736
 H        -3.602100         0.993115         2.983157
 H        -2.197125         3.037535         2.795462
 H        -0.925869         2.046318         3.536181
 H        -0.625275         2.629450         0.586314
 H         0.050275        -0.703317         2.683859
 H        -0.961125        -1.695158         1.784425
