19
Iteration:  2416
 O         0.436839         0.151755         0.240735
 C        -0.789591         0.337067         0.850256
 C        -2.133563         0.183771         0.076143
 C        -2.643414         1.451605         0.933573
 C        -2.653949         0.941628         2.499192
 C        -1.458257         2.012547         2.659836
 C        -1.186474         1.835514         1.166494
 O        -2.193766        -0.359200         2.744544
 C        -0.861990        -0.517000         2.072843
 H         0.498763         0.748177        -0.511092
 H        -1.996222         0.485868        -1.032294
 H        -2.565689        -0.854340         0.160284
 H        -3.488308         2.120374         0.816698
 H        -3.458516         1.190146         3.110962
 H        -1.879712         3.038553         2.826097
 H        -0.683807         1.784929         3.380519
 H        -0.568654         2.545688         0.610877
 H        -0.028061        -0.274898         2.681725
 H        -0.892125        -1.526973         1.658540
