19
Iteration:  4537charge 0 multiplicity 1
 O         0.352650         0.161583        -0.002106
 C        -0.746641         0.323759         0.841735
 C        -2.099519         0.092932         0.105862
 C        -2.644474         1.207460         0.935895
 C        -2.645103         0.994413         2.527191
 C        -1.635760         2.155665         2.585304
 C        -1.272383         1.872778         1.196873
 O        -2.056878        -0.232726         2.840536
 C        -0.738589        -0.527865         2.161140
 H         1.064466         0.699057         0.438446
 H        -2.022062         0.076738        -1.059140
 H        -2.711075        -0.780515         0.373414
 H        -3.598956         1.732839         0.621699
 H        -3.692638         1.134443         2.938462
 H        -2.140768         3.118083         2.839924
 H        -0.859996         1.970493         3.378737
 H        -0.649785         2.536519         0.585391
 H        -0.037410        -0.286112         2.852612
 H        -0.592480        -1.606275         1.923842
