19
Iteration:  2370charge 0 multiplicity 1
 O         0.534977         0.128338         0.254719
 C        -0.799514         0.413625         0.780467
 C        -2.040611         0.268290         0.014357
 C        -2.695548         1.298409         0.998811
 C        -2.644256         1.003779         2.573613
 C        -1.497095         2.044144         2.693864
 C        -1.227056         1.805841         1.163592
 O        -2.109856        -0.277072         2.830201
 C        -1.011576        -0.621671         1.994505
 H         0.589531         0.088513        -0.713147
 H        -2.038733         0.813031        -1.035844
 H        -2.486908        -0.759924         0.137569
 H        -3.346635         2.069223         0.574162
 H        -3.562979         1.008295         3.259419
 H        -1.979113         3.021950         2.659259
 H        -0.701371         1.929895         3.400153
 H        -0.933890         2.603737         0.446017
 H        -0.084081        -0.467779         2.509542
 H        -1.162656        -1.591491         1.349802
