19
Iteration:  2681
 O         0.446303         0.165276         0.300776
 C        -0.792637         0.346144         0.834386
 C        -2.101132         0.203703         0.113463
 C        -2.692148         1.357633         0.932574
 C        -2.605428         0.936280         2.532707
 C        -1.419779         2.064884         2.668028
 C        -1.212927         1.850691         1.186332
 O        -2.172006        -0.330130         2.707479
 C        -0.890417        -0.519401         2.001788
 H         0.379617         0.629571        -0.554405
 H        -1.981803         0.606557        -0.926182
 H        -2.712437        -0.705761         0.275414
 H        -3.564287         1.826625         0.396715
 H        -3.557197         0.949400         3.091935
 H        -1.874926         2.985106         2.926174
 H        -0.561413         1.809677         3.269206
 H        -0.878965         2.644109         0.515682
 H        -0.013697        -0.575175         2.653891
 H        -0.945012        -1.526666         1.558791
