19
Iteration:  4134
 O         0.502679         0.307890         0.071813
 C        -0.744371         0.270332         0.787765
 C        -2.195181         0.047314         0.066346
 C        -2.699085         1.150724         1.015287
 C        -2.627217         1.110852         2.532627
 C        -1.543081         2.092962         2.612007
 C        -1.298662         1.803899         1.162526
 O        -2.084390        -0.283503         2.825114
 C        -0.846939        -0.449547         2.197171
 H         0.712275        -0.586190        -0.223454
 H        -2.321905         0.455386        -1.014409
 H        -2.469500        -1.001645        -0.056733
 H        -3.435181         1.871091         0.616518
 H        -3.495559         1.155762         3.210271
 H        -1.966575         3.141264         2.755878
 H        -0.602037         2.096962         3.303235
 H        -0.844779         2.565786         0.438602
 H        -0.048497        -0.063187         2.735548
 H        -0.663353        -1.452833         1.964301
