19
Iteration:  2810
 O         0.467073         0.265870         0.238446
 C        -0.772909         0.351610         0.822953
 C        -2.176649         0.230448        -0.016339
 C        -2.656927         1.323447         0.923162
 C        -2.610038         0.977374         2.524064
 C        -1.454549         2.044469         2.732362
 C        -1.213151         1.835962         1.117035
 O        -2.122706        -0.312093         2.792782
 C        -0.946989        -0.712957         2.083482
 H         0.698945         1.041351        -0.279498
 H        -2.143552         0.583308        -1.063990
 H        -2.705622        -0.705784        -0.103555
 H        -3.385042         2.118267         0.564541
 H        -3.433772         1.056631         3.237399
 H        -1.840191         3.106315         3.063462
 H        -0.660478         1.783546         3.503109
 H        -0.582950         2.480868         0.404138
 H        -0.145286        -0.677440         2.766975
 H        -1.233304        -1.767654         1.733765
