19
Iteration:   200
 O         0.466862         0.259248         0.239026
 C        -0.843109         0.342531         0.759036
 C        -2.059402         0.370655        -0.057423
 C        -2.594121         1.434140         0.982239
 C        -2.622753         0.941727         2.544008
 C        -1.492570         1.928090         2.728999
 C        -1.184112         1.818990         1.238826
 O        -2.154169        -0.405304         2.792930
 C        -1.001499        -0.585668         1.991417
 H         0.510849        -0.670459        -0.137930
 H        -1.878913         0.754187        -1.004120
 H        -2.567525        -0.656483        -0.306254
 H        -3.274949         2.257995         0.736169
 H        -3.608263         1.072698         3.106823
 H        -1.964018         2.864502         2.897207
 H        -0.723595         1.754454         3.476272
 H        -0.707798         2.662517         0.755193
 H        -0.133722        -0.244288         2.642436
 H        -0.981460        -1.575570         1.644451
