19
Iteration:  3225charge 0 multiplicity 1
 O         0.468251         0.163784         0.275099
 C        -0.778299         0.374934         0.788469
 C        -2.115145         0.174827         0.105431
 C        -2.652933         1.377942         0.960937
 C        -2.626840         1.032915         2.542237
 C        -1.496494         2.058245         2.663040
 C        -1.154499         1.881612         1.183359
 O        -2.187875        -0.426909         2.681835
 C        -0.924903        -0.562552         2.052360
 H         0.638436         0.824097        -0.409817
 H        -2.023674         0.502160        -0.986304
 H        -2.642726        -0.822033         0.170984
 H        -3.557037         1.871931         0.590046
 H        -3.498093         1.229340         3.131510
 H        -1.904310         3.083523         2.833412
 H        -0.827403         1.840904         3.480004
 H        -0.736833         2.678330         0.547284
 H        -0.109648        -0.524575         2.730858
 H        -0.732520        -1.648006         1.617471
