19
Iteration:  2617
 O         0.364876         0.095207         0.132241
 C        -0.797606         0.334079         0.835381
 C        -2.119298         0.241202         0.106107
 C        -2.601718         1.348875         0.940070
 C        -2.655798         0.962847         2.446330
 C        -1.637874         2.082037         2.741815
 C        -1.113477         1.887709         1.212930
 O        -2.119916        -0.314459         2.734154
 C        -0.782712        -0.591173         2.082368
 H         0.800725         0.924680        -0.068222
 H        -1.964304         0.448539        -1.035252
 H        -2.674232        -0.790596         0.221264
 H        -3.517264         1.950464         0.684150
 H        -3.606444         1.131151         3.057657
 H        -1.958755         3.140008         2.806708
 H        -0.871272         1.984816         3.622434
 H        -0.736086         2.690760         0.567984
 H         0.166885        -0.696860         2.733609
 H        -0.955033        -1.581597         1.728078
