19
Iteration:  2518charge 0 multiplicity 1
 O         0.549220         0.214347         0.307803
 C        -0.814600         0.375996         0.799744
 C        -2.112071         0.166129         0.004745
 C        -2.731586         1.309021         1.070305
 C        -2.607915         1.045503         2.564348
 C        -1.418209         2.039570         2.667385
 C        -1.236541         1.820540         1.135230
 O        -2.174504        -0.281271         2.723374
 C        -0.956595        -0.632007         1.980277
 H         0.720870         0.572439        -0.590809
 H        -2.216478         0.506425        -1.079228
 H        -2.372369        -0.918869         0.243109
 H        -3.687366         1.858997         0.801350
 H        -3.646459         1.361702         2.930203
 H        -1.887783         3.053928         2.804351
 H        -0.651084         1.763945         3.535939
 H        -0.663777         2.557270         0.556118
 H         0.002725        -0.682000         2.569744
 H        -0.959491        -1.612389         1.635588
