19
Iteration:  4243charge 0 multiplicity 1
 O         0.351469         0.146190         0.120396
 C        -0.741779         0.388327         0.922698
 C        -2.170752         0.022050         0.163838
 C        -2.661800         1.304338         0.873680
 C        -2.629735         0.989211         2.449768
 C        -1.597087         2.089584         2.600615
 C        -1.271012         1.956695         1.162319
 O        -2.023138        -0.335100         2.782962
 C        -0.725925        -0.446919         2.179745
 H         0.101577        -0.045386        -0.810611
 H        -2.058319         0.155802        -0.968589
 H        -2.534952        -0.937021         0.440356
 H        -3.394899         2.104466         0.641448
 H        -3.491403         0.815989         3.113614
 H        -2.007841         3.131601         2.602413
 H        -0.833882         1.920472         3.434881
 H        -0.910826         2.814428         0.517615
 H         0.110071        -0.161601         2.889464
 H        -0.550906        -1.528359         2.018093
