19
Iteration:  2698
 O         0.463495         0.131072         0.179177
 C        -0.798965         0.385430         0.862582
 C        -2.176985         0.185953         0.029494
 C        -2.626667         1.387889         0.935702
 C        -2.606275         1.025155         2.463476
 C        -1.616106         2.089642         2.750619
 C        -1.192414         1.907370         1.239581
 O        -2.075775        -0.356758         2.725107
 C        -0.865433        -0.660277         2.084812
 H         0.388860         0.299242        -0.770894
 H        -2.052014         0.453844        -1.017278
 H        -2.557164        -0.820016         0.196204
 H        -3.388706         2.123442         0.772174
 H        -3.506040         1.161539         3.050252
 H        -2.101218         3.141068         2.777400
 H        -0.857482         1.903161         3.600725
 H        -0.556530         2.635534         0.670852
 H         0.024530        -0.511542         2.729950
 H        -0.898369        -1.745144         1.692514
