19
Iteration:   260
 O         0.452151         0.135735         0.107945
 C        -0.760337         0.406657         0.807458
 C        -2.113512         0.238905         0.034525
 C        -2.554823         1.367249         0.896373
 C        -2.703232         0.969587         2.448369
 C        -1.508669         1.918910         2.841427
 C        -1.079640         1.868355         1.378246
 O        -2.259083        -0.373974         2.670536
 C        -0.897516        -0.432190         2.059285
 H         0.307820         0.251030        -0.858125
 H        -2.291525         0.398909        -1.075027
 H        -2.547278        -0.598152         0.424497
 H        -3.502038         2.053100         0.629817
 H        -3.690471         1.051656         2.829415
 H        -1.780142         2.958623         3.255534
 H        -0.777727         1.500418         3.551742
 H        -0.470829         2.789032         1.121942
 H        -0.118668        -0.199899         2.784530
 H        -0.702630        -1.558717         1.849817
