19
Iteration:  4076
 O         0.429731         0.138718         0.082314
 C        -0.740306         0.341013         0.832358
 C        -2.152140         0.063528         0.194410
 C        -2.715735         1.306240         0.977445
 C        -2.663656         0.964185         2.492426
 C        -1.573466         2.136538         2.672209
 C        -1.266204         1.874917         1.146800
 O        -2.070773        -0.301675         2.703140
 C        -0.740329        -0.406889         2.158920
 H         0.642671        -0.793362        -0.143048
 H        -2.041844         0.282957        -0.927272
 H        -2.624035        -0.916432         0.329129
 H        -3.520462         1.989035         0.773095
 H        -3.621391         1.061295         3.021950
 H        -2.213086         3.051600         2.565900
 H        -0.773264         2.212921         3.448615
 H        -0.904931         2.681331         0.538715
 H         0.024535         0.005812         2.690581
 H        -0.385297        -1.433706         1.999929
