19
Iteration:  4380
 O         0.370489         0.095901         0.092012
 C        -0.847792         0.322492         0.881003
 C        -2.090374         0.121053         0.107056
 C        -2.774799         1.300059         0.911006
 C        -2.659764         1.007762         2.428910
 C        -1.551094         2.102029         2.609522
 C        -1.312652         1.961498         1.177439
 O        -1.968037        -0.423481         2.763257
 C        -0.707078        -0.316691         2.234361
 H         0.673102        -0.777252         0.364329
 H        -1.865820         0.417713        -0.930505
 H        -2.557795        -0.932745         0.219334
 H        -3.739232         1.696356         0.692670
 H        -3.621994         1.032060         2.934636
 H        -1.767586         3.223728         2.556308
 H        -0.719538         2.005910         3.372545
 H        -1.029344         2.715443         0.413950
 H         0.105332         0.161888         2.776334
 H        -0.491719        -1.394203         2.282503
