19
Iteration:  2542charge 0 multiplicity 1
 O         0.466053         0.187160         0.351454
 C        -0.800635         0.418079         0.847501
 C        -2.170293         0.207045         0.020451
 C        -2.668861         1.360536         0.891902
 C        -2.581245         0.940626         2.584966
 C        -1.392093         2.046222         2.686879
 C        -1.260716         1.884323         1.088914
 O        -2.180687        -0.423903         2.704865
 C        -0.891305        -0.538002         2.078133
 H         0.503664         0.206592        -0.632855
 H        -2.342176         0.612010        -0.958705
 H        -2.829614        -0.633559         0.215322
 H        -3.452492         1.889863         0.303198
 H        -3.573477         1.251830         3.093286
 H        -1.786519         3.036604         3.009777
 H        -0.401475         1.784290         3.260442
 H        -0.713767         2.623334         0.471646
 H        -0.060758        -0.464319         2.798303
 H        -0.625298        -1.462223         1.724351
