19
Iteration:  4324
 O         0.394249         0.235167         0.087364
 C        -0.823420         0.324323         0.877205
 C        -2.143412         0.020341         0.127053
 C        -2.671571         1.258922         0.874036
 C        -2.624450         1.022925         2.510089
 C        -1.582021         2.123703         2.621504
 C        -1.285561         1.825525         1.126548
 O        -2.026508        -0.208145         2.864258
 C        -0.763115        -0.559373         2.099605
 H         1.142138         0.779201         0.448257
 H        -2.153778         0.232814        -0.936300
 H        -2.600345        -1.054448         0.219869
 H        -3.518057         1.828578         0.492921
 H        -3.585483         0.990720         3.073025
 H        -1.903687         3.202967         2.776385
 H        -0.743304         1.966167         3.405666
 H        -0.765493         2.456426         0.290214
 H         0.093616        -0.522599         2.721836
 H        -1.025050        -1.618069         2.010387
