19
Iteration:  2232
 O         0.566289         0.061652         0.288190
 C        -0.860303         0.406585         0.766389
 C        -2.134566         0.233361        -0.092675
 C        -2.792648         1.308032         0.948712
 C        -2.544858         1.021781         2.606601
 C        -1.479176         2.037791         2.716246
 C        -1.186700         1.833110         1.134260
 O        -2.106261        -0.355406         2.787250
 C        -0.940414        -0.491986         2.084244
 H         0.488009         0.400439        -0.611974
 H        -2.134769         0.827545        -1.007193
 H        -2.553352        -0.773321        -0.234566
 H        -3.744336         1.884400         0.668640
 H        -3.519286         1.170540         3.099258
 H        -2.006995         3.115128         2.763328
 H        -0.739088         1.995908         3.621711
 H        -0.805425         2.698598         0.548948
 H        -0.110210        -0.419403         2.893564
 H        -0.861320        -1.506090         1.656241
