19
Iteration:  3326
 O         0.410763         0.206126         0.160143
 C        -0.829177         0.372811         0.861679
 C        -2.102343         0.214742         0.027632
 C        -2.672182         1.336425         0.959677
 C        -2.661544         1.006384         2.473347
 C        -1.482773         1.955334         2.738870
 C        -1.196040         1.846385         1.177965
 O        -2.110409        -0.341119         2.697439
 C        -0.881778        -0.491565         2.117026
 H         1.080628        -0.290471         0.690174
 H        -2.144671         0.375788        -1.064076
 H        -2.718968        -0.739176         0.075881
 H        -3.360463         2.049534         0.545457
 H        -3.614101         1.071341         3.069017
 H        -1.808210         2.985871         2.720930
 H        -0.731428         1.672991         3.465711
 H        -0.735776         2.661997         0.574822
 H        -0.123469        -0.053455         2.727714
 H        -0.640204        -1.571917         1.757578
