19
Iteration:     1charge 0 multiplicity 1
 O         0.386711         0.169808         0.088048
 C        -0.781449         0.380257         0.833102
 C        -2.101480         0.300318         0.036684
 C        -2.618565         1.397356         0.980995
 C        -2.637545         0.951675         2.499450
 C        -1.505344         1.978161         2.785421
 C        -1.159843         1.855545         1.290702
 O        -2.179572        -0.383715         2.651515
 C        -0.906725        -0.564960         2.034120
 H         1.145034         0.258951         0.676935
 H        -1.967677         0.691953        -0.975357
 H        -2.612817        -0.665511         0.002602
 H        -3.411304         2.080967         0.676384
 H        -3.575702         1.021943         3.051301
 H        -1.916021         2.967820         3.007075
 H        -0.770287         1.718803         3.553834
 H        -0.640493         2.642126         0.741086
 H        -0.091806        -0.383996         2.755169
 H        -0.844936        -1.607125         1.704949
