19
Iteration:  2274charge 0 multiplicity 1
 O         0.431597         0.142588         0.245223
 C        -0.754266         0.391963         0.884262
 C        -2.164745         0.154191         0.107518
 C        -2.702192         1.367020         0.938328
 C        -2.636679         1.004545         2.464544
 C        -1.481009         2.024571         2.676332
 C        -1.176739         1.869456         1.143569
 O        -2.123690        -0.300486         2.729181
 C        -0.883272        -0.581452         2.036278
 H         0.628667         0.801331        -0.428728
 H        -2.032722         0.473736        -0.978089
 H        -2.595533        -0.863063        -0.086040
 H        -3.633665         1.890302         0.584021
 H        -3.474490         1.052261         3.166864
 H        -1.899632         3.102200         2.953225
 H        -0.734747         1.909069         3.549934
 H        -0.501771         2.551260         0.594174
 H         0.023334        -0.614504         2.838139
 H        -1.016951        -1.654692         1.770876
