19
Iteration:  3940
 O         0.440485         0.096416         0.100610
 C        -0.866241         0.385296         0.848698
 C        -2.130843         0.117559         0.073056
 C        -2.701895         1.277494         0.925730
 C        -2.645329         0.978740         2.459259
 C        -1.595971         2.099343         2.694781
 C        -1.254584         1.932896         1.111926
 O        -2.045304        -0.352495         2.796364
 C        -0.709171        -0.347781         2.197473
 H         0.729820        -0.824795         0.118468
 H        -2.117841         0.448264        -0.955551
 H        -2.537263        -0.930642         0.028624
 H        -3.699762         1.766083         0.719047
 H        -3.570761         0.974309         3.031725
 H        -2.060558         3.071551         2.780598
 H        -0.823448         1.906843         3.444607
 H        -0.882131         2.828896         0.545908
 H         0.063209        -0.061489         2.843104
 H        -0.471339        -1.513832         1.920861
