19
Iteration:  3621
 O         0.466454         0.116713         0.127409
 C        -0.765452         0.432083         0.850138
 C        -2.067780         0.119249         0.029136
 C        -2.727174         1.243768         1.008603
 C        -2.605148         1.001947         2.532951
 C        -1.460230         2.069680         2.585388
 C        -1.330442         1.855391         1.124618
 O        -2.194859        -0.328352         2.807981
 C        -0.867842        -0.463368         2.124347
 H         1.217148         0.642681         0.439953
 H        -1.881785         0.613022        -0.973415
 H        -2.315817        -0.924913         0.151336
 H        -3.712206         1.618905         0.719243
 H        -3.576019         1.208712         3.122660
 H        -1.714464         3.142731         2.841800
 H        -0.659512         1.738569         3.293815
 H        -0.945756         2.672332         0.416007
 H         0.039195        -0.092522         2.664042
 H        -0.812021        -1.457687         1.856390
