19
Iteration:   575
 O         0.495821         0.043462         0.303425
 C        -0.804220         0.430984         0.795563
 C        -2.130324         0.308067        -0.021601
 C        -2.678194         1.343142         0.940002
 C        -2.610086         0.956209         2.476165
 C        -1.461759         1.987266         2.752645
 C        -1.271957         1.883849         1.325150
 O        -2.115741        -0.293554         2.743656
 C        -0.964868        -0.577629         1.927927
 H         0.964459         0.708383        -0.198218
 H        -2.128594         0.446483        -1.145503
 H        -2.563503        -0.706737        -0.015282
 H        -3.471689         2.011474         0.708826
 H        -3.546367         1.152764         2.914152
 H        -1.741094         3.052426         3.164559
 H        -0.577861         1.765994         3.469671
 H        -0.834770         2.577368         0.511861
 H        -0.020371        -0.511265         2.485799
 H        -1.003547        -1.596186         1.570044
