19
Iteration:  1347charge 0 multiplicity 1
 O         0.417259         0.129094         0.074674
 C        -0.764715         0.379724         0.808241
 C        -2.108767         0.139305         0.223992
 C        -2.554984         1.412715         0.956111
 C        -2.772568         1.002846         2.456184
 C        -1.513480         2.005547         2.718101
 C        -1.136657         1.803080         1.276174
 O        -2.191067        -0.380632         2.646429
 C        -0.818280        -0.431499         2.112314
 H         0.351713         0.611951        -0.800203
 H        -2.017574         0.085836        -0.954106
 H        -2.620542        -0.801966         0.667861
 H        -3.313995         2.154739         0.471531
 H        -3.821851         0.952359         2.868634
 H        -1.978050         3.020523         2.781378
 H        -0.916284         1.929693         3.701928
 H        -0.324639         2.648179         0.907378
 H        -0.163213         0.045011         2.831424
 H        -0.678542        -1.482312         1.931082
