19
Iteration:  4449charge 0 multiplicity 1
 O         0.410162         0.381811         0.166940
 C        -0.804652         0.352962         0.890934
 C        -2.119573         0.005625         0.153218
 C        -2.677451         1.247272         0.926652
 C        -2.567686         1.005695         2.466810
 C        -1.471634         2.129075         2.537987
 C        -1.314414         1.814860         1.051295
 O        -2.017210        -0.256747         2.864245
 C        -0.901272        -0.593585         2.162398
 H         0.413938        -0.285219        -0.559118
 H        -1.881830         0.275296        -0.978531
 H        -2.546097        -0.963716         0.377549
 H        -3.607278         1.808242         0.653921
 H        -3.504829         0.945379         3.097638
 H        -2.119850         3.044210         2.544162
 H        -0.741164         2.162187         3.344991
 H        -0.833779         2.574413         0.497589
 H        -0.122006        -0.465964         2.955439
 H        -0.956069        -1.740348         1.862725
