19
Iteration:  3455
 O         0.362531         0.215425         0.080782
 C        -0.758626         0.276848         0.916661
 C        -2.081661         0.122041         0.064854
 C        -2.613224         1.377615         0.905873
 C        -2.619475         0.965400         2.476173
 C        -1.536736         2.140993         2.628718
 C        -1.244927         1.945176         1.181380
 O        -2.141660        -0.362081         2.811865
 C        -0.877081        -0.586827         2.109565
 H         1.211609         0.106241         0.539879
 H        -1.784824         0.439998        -0.984387
 H        -2.550534        -0.874051         0.128119
 H        -3.519885         1.905670         0.636241
 H        -3.537567         1.032847         3.153128
 H        -2.111242         3.097746         2.963228
 H        -0.677182         1.985948         3.377926
 H        -0.774294         2.804288         0.601475
 H         0.059484        -0.477824         2.716695
 H        -0.971951        -1.681930         1.743830
