19
Iteration:  3485
 O         0.497541         0.227148         0.181662
 C        -0.728972         0.302563         0.823131
 C        -2.150936         0.111921         0.030957
 C        -2.680981         1.307896         1.003701
 C        -2.677608         1.017047         2.540967
 C        -1.600280         2.116252         2.662904
 C        -1.201168         1.826394         1.208841
 O        -2.084702        -0.234778         2.768915
 C        -0.877187        -0.539310         2.004915
 H         0.843371        -0.698324         0.085245
 H        -2.072337         0.483936        -1.001321
 H        -2.462757        -0.968282         0.203012
 H        -3.519560         1.962416         0.740077
 H        -3.502881         0.993726         3.200654
 H        -2.083672         3.051530         2.622033
 H        -0.887697         1.908647         3.416914
 H        -0.821144         2.618715         0.613001
 H         0.066444        -0.549433         2.502422
 H        -1.054069        -1.497291         1.667597
