19
Iteration:  3418charge 0 multiplicity 1
 O         0.506253         0.028284         0.139953
 C        -0.783372         0.357732         0.740417
 C        -2.150549         0.156105         0.074064
 C        -2.642680         1.357959         1.002618
 C        -2.747929         0.970643         2.526404
 C        -1.520435         2.001431         2.700959
 C        -1.196638         1.832106         1.215262
 O        -2.156064        -0.307717         2.689204
 C        -0.791339        -0.384172         2.124687
 H         0.745841         0.956799         0.016336
 H        -2.054931         0.610434        -0.931630
 H        -2.849224        -0.788906         0.007995
 H        -3.531208         1.975496         0.740795
 H        -3.634069         1.168296         3.083190
 H        -2.005654         2.949149         2.832540
 H        -0.813522         1.652735         3.450961
 H        -0.698576         2.571030         0.604043
 H        -0.204515         0.088062         2.840207
 H        -0.457184        -1.338996         2.033724
