19
Iteration:  3121
 O         0.467791         0.252903         0.114993
 C        -0.708324         0.398355         0.869063
 C        -2.149036         0.179608         0.146062
 C        -2.604588         1.307451         0.970154
 C        -2.630046         0.973424         2.543172
 C        -1.524110         2.095799         2.720804
 C        -1.194482         1.860648         1.195886
 O        -2.187975        -0.391248         2.613844
 C        -0.917133        -0.552781         2.056429
 H         0.903466        -0.583732         0.374109
 H        -2.112772         0.481795        -0.830293
 H        -2.703130        -0.685768         0.304204
 H        -3.428977         1.977709         0.678545
 H        -3.631602         1.051499         3.013368
 H        -1.918909         3.115933         2.625100
 H        -0.976604         1.940775         3.705824
 H        -0.671886         2.633124         0.644269
 H        -0.023259        -0.444702         2.772072
 H        -1.076162        -1.532940         1.587306
