19
Iteration:   811
 O         0.475754         0.052433         0.084255
 C        -0.789635         0.359386         0.794386
 C        -2.117642         0.396021        -0.023764
 C        -2.532984         1.396015         1.010037
 C        -2.726061         0.926608         2.481002
 C        -1.621469         2.040123         2.842099
 C        -1.131095         1.892757         1.368827
 O        -2.126957        -0.347493         2.711883
 C        -0.896045        -0.491715         1.955034
 H         0.666161        -0.852572         0.371159
 H        -2.079248         0.615517        -1.125068
 H        -2.529519        -0.682109        -0.013307
 H        -3.471289         2.082186         0.759493
 H        -3.766135         0.773703         2.974994
 H        -1.955996         2.998952         3.133281
 H        -0.869259         1.811221         3.579601
 H        -0.666923         2.696033         0.820767
 H        -0.067413        -0.485792         2.594577
 H        -0.955940        -1.574615         1.591909
