19
Iteration:  2244charge 0 multiplicity 1
 O         0.498424         0.107062         0.359015
 C        -0.740605         0.376775         0.776671
 C        -2.243327         0.210193        -0.146844
 C        -2.671327         1.332707         0.984945
 C        -2.609859         0.947106         2.625505
 C        -1.470111         2.084448         2.656010
 C        -1.241941         1.869623         1.137934
 O        -2.123753        -0.318907         2.813584
 C        -0.912869        -0.548868         2.027110
 H         0.788108         0.332924        -0.553599
 H        -2.119630         0.742687        -1.069643
 H        -2.625170        -0.787382        -0.385239
 H        -3.537064         1.999597         0.693945
 H        -3.476574         0.985289         3.326442
 H        -2.034410         3.066127         2.836301
 H        -0.607258         1.968580         3.385572
 H        -0.708066         2.614135         0.512601
 H         0.025197        -0.301099         2.580774
 H        -0.916417        -1.613431         1.749285
