19
Iteration:  4299charge 0 multiplicity 1
 O         0.403990         0.166694         0.168020
 C        -0.836590         0.370610         0.874314
 C        -2.115677         0.133453         0.085410
 C        -2.734438         1.180216         0.909457
 C        -2.540637         0.960830         2.519407
 C        -1.509972         2.126929         2.545805
 C        -1.293838         1.845009         1.071404
 O        -2.062133        -0.310558         2.922384
 C        -0.839446        -0.471855         2.105626
 H         0.839327         1.015545        -0.048522
 H        -2.058873         0.518266        -0.960627
 H        -2.449981        -0.920730         0.009581
 H        -3.646647         1.760342         0.634131
 H        -3.440286         1.176210         3.137559
 H        -1.902959         3.151685         2.762931
 H        -0.641299         1.959669         3.279604
 H        -0.786310         2.436612         0.230019
 H        -0.041429        -0.123264         2.763251
 H        -0.793624        -1.535127         1.976351
