19
Iteration:  4889charge 0 multiplicity 1
 O         0.356838         0.211979         0.058185
 C        -0.785771         0.377192         0.873147
 C        -2.114589         0.110445         0.005788
 C        -2.673238         1.226595         0.886063
 C        -2.589895         1.011186         2.523491
 C        -1.599393         2.112472         2.622999
 C        -1.284163         1.781334         1.153642
 O        -2.015981        -0.266864         2.891408
 C        -0.815107        -0.544178         2.158720
 H         1.075066        -0.131788         0.643519
 H        -1.921994         0.633457        -0.952801
 H        -2.534648        -0.902507        -0.179009
 H        -3.437662         2.045900         0.576522
 H        -3.448785         1.242504         3.139826
 H        -2.155053         3.049364         2.673752
 H        -0.867841         2.181275         3.494354
 H        -0.815513         2.623248         0.583998
 H         0.074515        -0.348527         2.788311
 H        -0.974881        -1.530273         1.911257
