19
Iteration:  2917charge 0 multiplicity 1
 O         0.486486         0.251643         0.160848
 C        -0.767475         0.264133         0.785956
 C        -2.067182         0.274981         0.021955
 C        -2.663691         1.309149         0.973284
 C        -2.668654         1.027862         2.557338
 C        -1.477719         2.050197         2.739167
 C        -1.187046         1.792909         1.148591
 O        -2.167497        -0.311982         2.776552
 C        -0.963737        -0.629674         2.067655
 H         0.397816         0.895352        -0.552739
 H        -1.853905         0.630791        -1.057116
 H        -2.515853        -0.770841         0.095375
 H        -3.487529         1.891184         0.534194
 H        -3.565112         1.092687         3.200582
 H        -1.718425         3.100790         2.991812
 H        -0.985762         1.631202         3.601132
 H        -0.768300         2.673529         0.621181
 H         0.037877        -0.709482         2.778311
 H        -0.994716        -1.658907         1.825271
