19
Iteration:  3646charge 0 multiplicity 1
 O         0.475521         0.158039         0.135020
 C        -0.783790         0.368847         0.781579
 C        -2.215002         0.077653         0.120330
 C        -2.658795         1.282755         0.944232
 C        -2.612159         1.001685         2.514269
 C        -1.548719         2.097525         2.683199
 C        -1.233841         1.835634         1.147070
 O        -2.130333        -0.308361         2.710871
 C        -0.797780        -0.421745         2.099819
 H         1.109552         0.086454         0.882180
 H        -2.165976         0.296888        -0.890141
 H        -2.609387        -0.836074         0.572086
 H        -3.501333         1.817013         0.445941
 H        -3.490453         1.079152         3.096728
 H        -2.123005         3.060343         2.905242
 H        -0.831666         1.909713         3.556601
 H        -0.928232         2.635914         0.501793
 H         0.044635        -0.113844         2.589785
 H        -0.723505        -1.551627         1.871439
