19
Iteration:  1541charge 0 multiplicity 1
 O         0.490042         0.195427         0.326564
 C        -0.789722         0.352701         0.839653
 C        -2.137510         0.298211        -0.094314
 C        -2.705151         1.305812         0.972723
 C        -2.637839         0.992191         2.559551
 C        -1.409129         2.068963         2.624638
 C        -1.266815         1.747759         1.180074
 O        -2.110559        -0.303902         2.827325
 C        -0.913043        -0.624251         2.043385
 H         0.590466         0.604071        -0.564987
 H        -2.000961         0.732255        -1.114890
 H        -2.584437        -0.698265        -0.322322
 H        -3.663010         1.792679         0.639803
 H        -3.616390         1.161522         3.142574
 H        -1.901906         3.168523         2.548441
 H        -0.617767         1.966335         3.536951
 H        -0.870259         2.521026         0.571382
 H         0.091097        -0.651672         2.615277
 H        -1.081851        -1.673676         1.554077
