19
Iteration:   653charge 0 multiplicity 1
 O         0.429445        -0.015248         0.126057
 C        -0.704835         0.354000         0.822181
 C        -2.068021         0.261687         0.131650
 C        -2.630531         1.453013         0.966251
 C        -2.772692         0.953388         2.453981
 C        -1.542504         1.985077         2.847298
 C        -1.184567         1.842986         1.367343
 O        -2.161468        -0.293461         2.600544
 C        -0.828043        -0.455455         2.008648
 H         0.460818         0.552774        -0.644291
 H        -2.081142         0.540484        -0.980342
 H        -2.631225        -0.636942         0.197850
 H        -3.313353         2.207294         0.560841
 H        -3.715886         0.909660         2.893397
 H        -1.905454         3.049173         2.802083
 H        -0.762188         1.589850         3.535785
 H        -0.637473         2.735194         0.930511
 H        -0.044257        -0.368092         2.755593
 H        -0.780330        -1.496675         1.717249
