19
Iteration:  1627charge 0 multiplicity 1
 O         0.385208        -0.005417         0.064163
 C        -0.718577         0.362823         0.851522
 C        -2.168470         0.242844         0.010884
 C        -2.608988         1.421344         0.929213
 C        -2.696642         0.987993         2.492906
 C        -1.667164         2.091594         2.736768
 C        -1.112686         1.772097         1.300181
 O        -2.092472        -0.388683         2.712803
 C        -0.791635        -0.414686         2.144762
 H         0.413895         0.542034        -0.766884
 H        -1.699517         0.620797        -0.950145
 H        -2.777722        -0.703346        -0.041255
 H        -3.479603         2.056496         0.702175
 H        -3.736731         0.826082         2.971832
 H        -2.071138         3.078619         2.975900
 H        -1.033228         2.039450         3.618658
 H        -0.441962         2.594578         0.811056
 H        -0.178773         0.054614         2.919904
 H        -0.405912        -1.497106         2.290347
