19
Iteration:  1470charge 0 multiplicity 1
 O         0.398131         0.149396         0.088717
 C        -0.765922         0.347658         0.839228
 C        -2.138566         0.192772         0.089352
 C        -2.611275         1.315314         0.927942
 C        -2.668483         0.990375         2.431923
 C        -1.537077         2.068020         2.781173
 C        -1.129365         1.826434         1.243943
 O        -2.206261        -0.419631         2.670185
 C        -0.793906        -0.446763         2.229979
 H         0.388590         0.509818        -0.843926
 H        -2.039616         0.341306        -1.023334
 H        -2.835740        -0.730281         0.164873
 H        -3.229830         2.211176         0.602977
 H        -3.681946         1.029872         2.762302
 H        -1.763810         3.103371         2.914066
 H        -0.867860         2.003386         3.614663
 H        -0.545329         2.642490         0.620026
 H        -0.213710         0.008778         2.946634
 H        -0.445100        -1.445725         2.138905
