19
Iteration:  4081charge 0 multiplicity 1
 O         0.376482         0.161285         0.078203
 C        -0.770143         0.340451         0.858202
 C        -2.167472         0.082426         0.196734
 C        -2.682750         1.304719         0.946544
 C        -2.631507         0.956563         2.490437
 C        -1.618999         2.142258         2.709693
 C        -1.219705         1.897671         1.119608
 O        -2.056608        -0.284841         2.693446
 C        -0.721016        -0.448385         2.157020
 H         0.567853        -0.778988        -0.010981
 H        -1.985682         0.047863        -0.894453
 H        -2.580809        -0.927758         0.365414
 H        -3.560149         1.936025         0.612070
 H        -3.598065         0.892776         3.035398
 H        -2.112270         3.120259         2.597641
 H        -0.853626         2.112053         3.510473
 H        -0.848743         2.647551         0.314447
 H         0.070482        -0.014441         3.043399
 H        -0.375240        -1.473704         1.899568
