19
Iteration:  3344
 O         0.546054         0.306888         0.088613
 C        -0.790776         0.298671         0.773618
 C        -2.187198         0.207282        -0.009138
 C        -2.635140         1.289236         0.948206
 C        -2.697103         0.973901         2.541033
 C        -1.515594         2.047301         2.721681
 C        -1.170715         1.744308         1.202709
 O        -2.212564        -0.298478         2.835670
 C        -0.875383        -0.494772         2.088037
 H         0.927689        -0.597070         0.255024
 H        -1.938642         0.691253        -0.964098
 H        -2.520913        -0.789916        -0.133596
 H        -3.452367         1.967911         0.717392
 H        -3.643265         1.205743         2.945219
 H        -1.921748         3.056435         2.947855
 H        -0.759586         1.667937         3.419532
 H        -0.618619         2.572719         0.766272
 H         0.143368        -0.239999         2.606316
 H        -0.989553        -1.568407         2.017546
