19
Iteration:    75
 O         0.474799         0.133893         0.136872
 C        -0.801255         0.327321         0.808310
 C        -2.048433         0.395156         0.008546
 C        -2.549936         1.458951         0.967772
 C        -2.625105         0.886637         2.498664
 C        -1.568973         2.068540         2.810356
 C        -1.178701         1.900001         1.343867
 O        -2.182103        -0.447611         2.677379
 C        -0.969972        -0.594531         2.048669
 H         0.296946        -0.050312        -0.816523
 H        -2.130365         0.750549        -1.152122
 H        -2.608437        -0.531054         0.172338
 H        -3.383319         2.046223         0.751011
 H        -3.571761         0.903548         2.972312
 H        -2.091450         3.058448         3.068252
 H        -0.733323         2.076181         3.549418
 H        -0.526576         2.583589         0.732533
 H         0.053751        -0.550951         2.673924
 H        -0.975108        -1.688571         1.750933
