19
Iteration:  4654charge 0 multiplicity 1
 O         0.358929         0.252844        -0.014776
 C        -0.768428         0.308359         0.942564
 C        -2.046740         0.077155         0.118949
 C        -2.682083         1.294822         0.835496
 C        -2.695521         1.002352         2.474370
 C        -1.663430         2.108152         2.637315
 C        -1.185508         1.800886         1.196678
 O        -1.993086        -0.286471         2.844827
 C        -0.789852        -0.480151         2.243010
 H         0.072052        -0.439736        -0.617886
 H        -1.987325         0.208847        -0.911415
 H        -2.708955        -0.799013         0.249904
 H        -3.239495         2.044184         0.237023
 H        -3.621015         0.921181         3.133738
 H        -2.153265         3.117126         2.775255
 H        -0.975255         2.131861         3.466124
 H        -0.644663         2.517683         0.623018
 H         0.060730        -0.156633         2.952527
 H        -0.570771        -1.455553         1.993423
