19
Iteration:   137charge 0 multiplicity 1
 O         0.434269         0.268620         0.110754
 C        -0.807723         0.427725         0.855472
 C        -2.177994         0.322471         0.064196
 C        -2.586855         1.447977         1.015807
 C        -2.612519         0.947221         2.483259
 C        -1.418444         1.994705         2.727874
 C        -1.057736         1.852383         1.267915
 O        -2.284027        -0.567673         2.612671
 C        -0.954517        -0.550936         2.110825
 H         0.860773        -0.607829         0.285949
 H        -1.949073         0.794461        -0.860935
 H        -2.715531        -0.623088         0.007367
 H        -3.417610         2.232456         0.662758
 H        -3.570577         1.109475         3.034408
 H        -2.007530         2.928399         2.700306
 H        -0.707930         1.926671         3.551627
 H        -0.433662         2.638097         0.739300
 H        -0.251956        -0.456719         2.912318
 H        -0.723765        -1.570766         1.643983
