19
Iteration:  2334
 O         0.377905         0.006767         0.175805
 C        -0.794501         0.353421         0.865731
 C        -2.099044         0.267557         0.079933
 C        -2.637931         1.429934         0.905392
 C        -2.678349         0.970236         2.457731
 C        -1.543022         2.068002         2.776687
 C        -1.233522         1.834330         1.209410
 O        -2.081929        -0.381244         2.665615
 C        -0.814410        -0.481694         2.119369
 H         0.480149         0.558802        -0.640340
 H        -1.976758         0.469016        -0.998167
 H        -2.662145        -0.670573         0.105096
 H        -3.362638         2.189107         0.613020
 H        -3.584560         1.087881         3.141502
 H        -1.907332         3.056203         2.893718
 H        -0.792090         1.921869         3.582599
 H        -0.720852         2.582375         0.579071
 H        -0.033591        -0.042877         2.819268
 H        -0.465935        -1.586231         2.032174
