19
Iteration:  3131
 O         0.513453         0.269135         0.015958
 C        -0.714018         0.341834         0.872057
 C        -2.100044         0.209698         0.146120
 C        -2.621612         1.322042         1.046990
 C        -2.664414         0.988815         2.464533
 C        -1.617638         2.123507         2.704862
 C        -1.144978         1.759507         1.315694
 O        -2.197046        -0.317287         2.652724
 C        -0.941569        -0.586315         2.042299
 H         0.928384        -0.626182         0.093022
 H        -2.164595         0.439368        -0.853105
 H        -2.590517        -0.719242         0.315983
 H        -3.300443         2.033287         0.625011
 H        -3.583246         0.954051         3.065140
 H        -2.075631         3.120731         2.749016
 H        -0.819092         2.125607         3.511184
 H        -0.795528         2.549713         0.667462
 H        -0.086231        -0.553692         2.826750
 H        -0.821523        -1.569300         1.744757
