19
Iteration:  1910
 O         0.370232        -0.066901         0.083779
 C        -0.709992         0.353422         0.858855
 C        -2.104042         0.271283         0.088326
 C        -2.701040         1.370369         0.902775
 C        -2.642393         0.963121         2.523659
 C        -1.587909         2.074103         2.838677
 C        -1.155830         1.912507         1.238673
 O        -2.168920        -0.352374         2.603241
 C        -0.794287        -0.449007         2.120953
 H         0.517538         0.755173        -0.460280
 H        -1.920284         0.527684        -0.945524
 H        -2.382978        -0.763878         0.158600
 H        -3.524370         1.983428         0.666707
 H        -3.588121         0.788319         3.013664
 H        -2.104300         3.111887         3.061738
 H        -0.886167         1.819229         3.679803
 H        -0.504261         2.651075         0.740188
 H         0.041966         0.226335         2.762013
 H        -0.426726        -1.466205         2.023126
