19
Iteration:  2058charge 0 multiplicity 1
 O         0.411278         0.095809         0.077529
 C        -0.777889         0.374969         0.839106
 C        -2.101772         0.155707         0.124206
 C        -2.606250         1.382785         0.904481
 C        -2.615829         0.983176         2.455104
 C        -1.575042         2.040086         2.797138
 C        -1.116706         1.928231         1.211129
 O        -2.160027        -0.378511         2.696517
 C        -0.896244        -0.511776         2.172577
 H         0.141328         0.720679        -0.644808
 H        -1.923923         0.236755        -0.972969
 H        -2.712021        -0.817392         0.224729
 H        -3.477004         2.107292         0.563716
 H        -3.659138         1.000804         2.971268
 H        -1.813503         3.041054         2.970503
 H        -0.827650         1.629463         3.509492
 H        -0.515706         2.774083         0.668296
 H        -0.224713         0.094043         2.950793
 H        -0.626729        -1.622138         1.890019
