19
Iteration:  4699charge 0 multiplicity 1
 O         0.558868         0.265170         0.176442
 C        -0.768748         0.406471         0.759865
 C        -2.236673         0.010806         0.118981
 C        -2.733577         1.297680         0.918057
 C        -2.622269         0.994681         2.643922
 C        -1.491640         2.053288         2.582221
 C        -1.287214         1.833330         1.058118
 O        -2.157021        -0.339653         2.823879
 C        -0.794956        -0.391455         2.083011
 H         0.951800        -0.601414         0.264119
 H        -2.182490         0.218810        -0.955012
 H        -2.400674        -1.031473         0.210318
 H        -3.712376         1.732248         0.480699
 H        -3.541217         1.105250         3.357133
 H        -1.989706         3.052925         2.784013
 H        -0.761013         2.046027         3.386986
 H        -0.845599         2.579891         0.415508
 H         0.058009        -0.085349         2.739920
 H        -0.682701        -1.389344         1.901910
