19
Iteration:   106charge 0 multiplicity 1
 O         0.423776         0.084819         0.051278
 C        -0.789810         0.366685         0.833697
 C        -2.040164         0.339488         0.015152
 C        -2.656074         1.452226         0.925757
 C        -2.783107         1.034919         2.465828
 C        -1.583046         1.909812         2.925666
 C        -1.160713         1.778778         1.430632
 O        -2.094715        -0.334022         2.617368
 C        -0.806511        -0.459461         2.038154
 H         0.231677        -0.771597        -0.348675
 H        -1.934898         0.723095        -1.068929
 H        -2.501685        -0.609516        -0.104849
 H        -3.352034         2.218739         0.487664
 H        -3.719415         0.911731         2.979317
 H        -1.713507         3.039957         3.153510
 H        -0.910001         1.430576         3.682720
 H        -0.483808         2.576669         0.992070
 H        -0.014671        -0.191061         2.716317
 H        -0.930384        -1.521119         1.752218
