19
Iteration:  3446
 O         0.347251         0.157860         0.072702
 C        -0.799147         0.368275         0.865948
 C        -2.051068         0.162789         0.011173
 C        -2.614908         1.339228         0.925597
 C        -2.638449         0.968643         2.519991
 C        -1.532554         2.093808         2.645706
 C        -1.232410         1.862671         1.189438
 O        -2.150880        -0.322717         2.758339
 C        -0.810542        -0.562669         2.159209
 H         1.009226         0.504936         0.687320
 H        -1.959971         0.371496        -1.062865
 H        -2.597569        -0.740002         0.005806
 H        -3.535862         1.905127         0.671678
 H        -3.549850         1.215080         3.191264
 H        -2.053181         3.030363         3.066989
 H        -0.731915         1.906349         3.446017
 H        -0.666316         2.582132         0.490108
 H        -0.081465        -0.285777         3.024104
 H        -0.727969        -1.760570         1.930414
