19
Iteration:   163
 O         0.517128         0.319175         0.266887
 C        -0.832344         0.354760         0.803281
 C        -2.182351         0.206018         0.027217
 C        -2.645650         1.408931         1.011151
 C        -2.541724         1.024388         2.520344
 C        -1.388401         1.981563         2.791960
 C        -1.244925         1.875823         1.265119
 O        -2.212436        -0.353052         2.566559
 C        -1.006670        -0.685958         1.948557
 H         1.068439        -0.462195         0.487036
 H        -1.962142         0.751059        -0.990242
 H        -2.675918        -0.754839         0.033070
 H        -3.386055         2.082257         0.687407
 H        -3.377864         1.157808         3.158558
 H        -1.811287         2.987204         3.148836
 H        -0.548586         1.570457         3.415514
 H        -0.813806         2.639905         0.605454
 H        -0.128847        -0.761971         2.609267
 H        -1.036095        -1.758647         1.655170
