19
Iteration:  2953charge 0 multiplicity 1
 O         0.458121         0.134089         0.332439
 C        -0.831621         0.310175         0.758667
 C        -2.142735         0.256967        -0.001575
 C        -2.663947         1.358145         0.940108
 C        -2.557784         0.977757         2.510344
 C        -1.525880         2.123169         2.706334
 C        -1.217079         1.945387         1.204381
 O        -2.048996        -0.387784         2.774252
 C        -0.946706        -0.674424         1.967525
 H         0.823811         1.001585         0.105343
 H        -2.210717         0.461675        -1.074829
 H        -2.786322        -0.621579         0.131209
 H        -3.616743         1.966085         0.759435
 H        -3.476879         0.975784         3.108723
 H        -1.979207         3.176573         2.775117
 H        -0.800696         1.950408         3.532588
 H        -0.658930         2.586783         0.431036
 H         0.055923        -0.444570         2.473131
 H        -1.159512        -1.681217         1.589506
