19
Iteration:  1532charge 0 multiplicity 1
 O         0.475467         0.128630         0.293079
 C        -0.792512         0.359748         0.779913
 C        -2.078315         0.248529        -0.055516
 C        -2.675916         1.287440         0.962877
 C        -2.577856         0.980224         2.540801
 C        -1.518828         2.022647         2.674535
 C        -1.253600         1.867629         1.164536
 O        -2.120178        -0.301383         2.837028
 C        -0.944477        -0.611962         2.017156
 H         0.567886         0.650743        -0.542790
 H        -1.927439         0.816499        -0.973757
 H        -2.707055        -0.613247        -0.120572
 H        -3.593680         1.949653         0.715941
 H        -3.502093         1.122885         3.140812
 H        -1.996268         3.110389         2.812643
 H        -0.551623         2.198835         3.353013
 H        -0.840661         2.706588         0.655423
 H         0.042287        -0.463050         2.730787
 H        -0.973302        -1.689531         1.705714
