19
Iteration:   324charge 0 multiplicity 1
 O         0.520089         0.079519         0.281794
 C        -0.735336         0.381068         0.746097
 C        -2.180608         0.297921        -0.041070
 C        -2.574523         1.306328         1.000855
 C        -2.593107         0.974618         2.550885
 C        -1.504537         2.047230         2.814318
 C        -1.215550         1.924493         1.206063
 O        -2.183912        -0.358221         2.735824
 C        -0.982874        -0.590360         1.933774
 H         0.923274         0.998422         0.362574
 H        -2.178521         0.713730        -1.052924
 H        -2.722161        -0.638287        -0.023017
 H        -3.437053         2.056268         0.708876
 H        -3.558080         1.118865         2.968007
 H        -1.976614         2.994784         3.094970
 H        -0.746343         1.704242         3.418145
 H        -0.940136         2.680016         0.372170
 H        -0.087857        -0.822085         2.499040
 H        -1.110131        -1.563233         1.406159
