19
Iteration:  1560
 O         0.530972         0.271382         0.363982
 C        -0.834878         0.282468         0.793619
 C        -2.151349         0.189420         0.011283
 C        -2.698573         1.295197         0.980531
 C        -2.571968         1.013579         2.503485
 C        -1.479989         2.068861         2.659329
 C        -1.227455         1.803963         1.123039
 O        -2.109750        -0.292259         2.800497
 C        -0.994635        -0.653179         1.999071
 H         0.545929         0.612335        -0.541756
 H        -2.026626         0.751187        -0.960659
 H        -2.817701        -0.703906        -0.190866
 H        -3.385820         2.063996         0.703433
 H        -3.479418         1.158021         3.142654
 H        -1.600511         3.010819         3.071659
 H        -0.626261         1.895382         3.207457
 H        -0.678385         2.611149         0.471563
 H        -0.120457        -0.463180         2.494334
 H        -0.941030        -1.722393         1.699981
