19
Iteration:    79charge 0 multiplicity 1
 O         0.457753         0.115364         0.123753
 C        -0.777079         0.353970         0.807604
 C        -2.062363         0.408822         0.014921
 C        -2.532215         1.429683         0.993562
 C        -2.641767         0.890260         2.483126
 C        -1.609253         2.022679         2.811976
 C        -1.132887         1.911937         1.329968
 O        -2.177987        -0.412198         2.696364
 C        -0.928622        -0.579548         2.021088
 H         0.292511        -0.182537        -0.782567
 H        -2.114926         0.707859        -0.970802
 H        -2.650438        -0.557806         0.139197
 H        -3.405607         2.085042         0.748697
 H        -3.678605         0.946849         2.930793
 H        -2.121797         2.919386         3.011991
 H        -0.847777         1.947602         3.587916
 H        -0.558671         2.630953         0.786584
 H        -0.045038        -0.497852         2.714767
 H        -1.027428        -1.618930         1.727620
