19
Iteration:  2960
 O         0.452307         0.069794         0.304233
 C        -0.824621         0.410813         0.854800
 C        -2.150694         0.204088        -0.038646
 C        -2.642650         1.395342         0.953843
 C        -2.539732         1.003522         2.517962
 C        -1.565281         2.097631         2.684219
 C        -1.260832         1.925212         1.192980
 O        -2.055060        -0.424322         2.731666
 C        -0.907786        -0.617791         1.991816
 H         0.867041         0.883168         0.016265
 H        -2.077233         0.770455        -1.036089
 H        -2.861335        -0.635662         0.239979
 H        -3.516056         2.028207         0.865303
 H        -3.463468         1.093716         3.112166
 H        -1.946226         3.089025         2.802701
 H        -0.740182         1.870551         3.321133
 H        -0.878380         2.664508         0.502955
 H         0.048240        -0.621848         2.716229
 H        -0.983482        -1.619511         1.566022
