19
Iteration:   367charge 0 multiplicity 1
 O         0.360814         0.161389         0.036053
 C        -0.766388         0.376833         0.880155
 C        -2.163643         0.245672        -0.001350
 C        -2.466242         1.380924         0.946572
 C        -2.621870         0.950960         2.459981
 C        -1.511300         1.998491         2.791393
 C        -1.134081         1.819074         1.315396
 O        -2.249803        -0.387178         2.611194
 C        -0.899330        -0.550832         2.222179
 H         1.006525         0.921122        -0.005664
 H        -2.020660         0.650174        -1.032168
 H        -2.892530        -0.620737        -0.149187
 H        -3.241929         2.206647         0.740539
 H        -3.560021         1.082639         2.944651
 H        -2.021857         2.959036         2.992066
 H        -0.882813         1.682200         3.565573
 H        -0.613318         2.680987         0.794713
 H        -0.111749        -0.131055         2.939357
 H        -0.586546        -1.596192         2.036145
