19
Iteration:  1909
 O         0.371828        -0.072431         0.080754
 C        -0.709577         0.357512         0.851507
 C        -2.101121         0.270761         0.086435
 C        -2.699665         1.365949         0.899211
 C        -2.638547         0.971664         2.527124
 C        -1.588309         2.069866         2.841458
 C        -1.156339         1.910140         1.241159
 O        -2.175462        -0.343590         2.605249
 C        -0.785005        -0.451260         2.117657
 H         0.491936         0.765111        -0.455703
 H        -1.901232         0.547412        -0.938190
 H        -2.390131        -0.786074         0.147696
 H        -3.561805         1.991378         0.655546
 H        -3.613340         0.784077         3.043629
 H        -2.123534         3.113964         3.079378
 H        -0.933930         1.810175         3.727610
 H        -0.527872         2.641624         0.758869
 H         0.042518         0.206106         2.723081
 H        -0.383554        -1.478513         2.062032
