19
Iteration:  4977charge 0 multiplicity 1
 O         0.441759         0.251032         0.027104
 C        -0.735035         0.280221         0.751660
 C        -2.096149         0.122680         0.060840
 C        -2.665428         1.221805         0.937502
 C        -2.684429         1.065249         2.602728
 C        -1.581326         2.120477         2.585177
 C        -1.226300         1.767266         1.117849
 O        -2.088226        -0.282874         2.896629
 C        -0.899012        -0.585063         2.166523
 H         1.060217         0.938481         0.373432
 H        -2.050909         0.603463        -0.886737
 H        -2.503227        -0.923977         0.112136
 H        -3.566015         1.919089         0.798560
 H        -3.518920         1.138766         3.259357
 H        -2.003870         3.125464         2.578186
 H        -0.945577         2.018107         3.519050
 H        -0.557426         2.488137         0.564256
 H         0.047408        -0.206942         2.668405
 H        -0.865553        -1.621691         2.122295
