19
Iteration:  1471charge 0 multiplicity 1
 O         0.400799         0.141677         0.087022
 C        -0.763842         0.340878         0.843527
 C        -2.138443         0.190618         0.086923
 C        -2.608578         1.327231         0.928136
 C        -2.679106         0.997241         2.435179
 C        -1.543022         2.068034         2.796443
 C        -1.123609         1.823283         1.234008
 O        -2.201585        -0.422134         2.658745
 C        -0.785856        -0.432417         2.231864
 H         0.352754         0.532125        -0.822765
 H        -2.063911         0.349504        -1.028744
 H        -2.852747        -0.720337         0.180130
 H        -3.276822         2.153981         0.633432
 H        -3.685756         1.014698         2.783569
 H        -1.784044         3.119010         2.879883
 H        -0.857937         1.969819         3.604265
 H        -0.535266         2.636211         0.620216
 H        -0.229578         0.003771         2.958182
 H        -0.443101        -1.473277         2.148089
