19
Iteration:  2779charge 0 multiplicity 1
 O         0.508356         0.155202         0.356927
 C        -0.792830         0.455501         0.779735
 C        -2.227183         0.190737         0.108996
 C        -2.728532         1.320136         0.966706
 C        -2.622683         0.937027         2.600511
 C        -1.360107         2.011616         2.673571
 C        -1.190077         1.849440         1.113301
 O        -2.169394        -0.366771         2.629183
 C        -0.930182        -0.478899         1.997556
 H         0.838074         0.735426        -0.369656
 H        -2.264470         0.471155        -1.025906
 H        -2.772474        -0.794459         0.119140
 H        -3.564349         1.960090         0.512077
 H        -3.410824         1.026298         3.382868
 H        -1.910932         3.033364         2.859286
 H        -0.595331         1.949411         3.524932
 H        -0.522848         2.561821         0.555343
 H        -0.117450        -0.458382         2.764498
 H        -0.781975        -1.643433         1.580555
