19
Iteration:  4800
 O         0.286179         0.043212         0.020832
 C        -0.764991         0.422866         0.867926
 C        -2.057899         0.106471         0.114375
 C        -2.681259         1.293334         0.880853
 C        -2.623854         0.899693         2.451913
 C        -1.591759         2.073390         2.706123
 C        -1.275812         1.897665         1.168359
 O        -2.074864        -0.293295         2.743682
 C        -0.734912        -0.385311         2.262595
 H         1.079319         0.613445         0.186724
 H        -1.930099         0.127483        -1.011110
 H        -2.644047        -0.755259         0.308619
 H        -3.511620         1.963959         0.416020
 H        -3.581173         0.881447         3.076620
 H        -2.011595         3.086559         2.805764
 H        -0.673816         1.934804         3.368632
 H        -0.592097         2.610193         0.641941
 H        -0.042019         0.097593         2.927239
 H        -0.612370        -1.376290         2.176743
