19
Iteration:  2228
 O         0.565413         0.055895         0.266969
 C        -0.888866         0.398173         0.776901
 C        -2.095232         0.265156        -0.033743
 C        -2.779891         1.281427         0.954792
 C        -2.561540         1.024587         2.559264
 C        -1.482253         2.039787         2.708544
 C        -1.202859         1.835358         1.159614
 O        -2.125751        -0.357368         2.785777
 C        -0.918012        -0.482036         2.067127
 H         0.454567         0.420605        -0.639712
 H        -2.105185         0.748690        -1.085169
 H        -2.573745        -0.729932        -0.188988
 H        -3.645848         1.863355         0.677725
 H        -3.459039         1.229844         3.141816
 H        -1.918905         3.092676         2.800665
 H        -0.771592         2.003949         3.560187
 H        -0.830516         2.668560         0.567377
 H        -0.048141        -0.391871         2.846931
 H        -0.884392        -1.553789         1.735086
