19
Iteration:  4554charge 0 multiplicity 1
 O         0.457919         0.226517         0.054318
 C        -0.791972         0.326909         0.832096
 C        -2.144366         0.009768         0.163810
 C        -2.736330         1.220187         0.955607
 C        -2.701450         1.043532         2.478556
 C        -1.523718         2.104004         2.660227
 C        -1.226992         1.727154         1.117319
 O        -2.033991        -0.218805         2.839062
 C        -0.851270        -0.463012         2.111885
 H         0.908286         1.117528         0.096961
 H        -2.076584         0.475634        -0.754874
 H        -2.332709        -1.074688         0.044260
 H        -3.458478         1.831925         0.479700
 H        -3.527434         1.040198         3.153231
 H        -1.907617         3.172754         2.673466
 H        -0.910148         1.984366         3.536974
 H        -0.923552         2.519018         0.429181
 H         0.172333        -0.390917         2.824475
 H        -0.911773        -1.537691         1.948855
