19
Iteration:  3560
 O         0.528345         0.080329         0.091017
 C        -0.783853         0.377898         0.791263
 C        -2.175980         0.018901         0.158046
 C        -2.617039         1.306929         0.999727
 C        -2.686322         1.025229         2.503550
 C        -1.622753         2.145448         2.703372
 C        -1.184712         1.832715         1.203524
 O        -2.113234        -0.240881         2.685794
 C        -0.859479        -0.478027         2.104360
 H         0.960590         0.867431        -0.265864
 H        -2.218782         0.187658        -0.893842
 H        -2.640929        -1.007121         0.333060
 H        -3.449876         1.938990         0.629687
 H        -3.568868         0.891260         3.039955
 H        -2.162532         3.079169         2.703202
 H        -0.958359         1.975494         3.551132
 H        -0.743756         2.708128         0.859231
 H         0.140624        -0.278334         2.768662
 H        -0.733505        -1.658340         1.837385
