19
Iteration:   773
 O         0.404841         0.181826         0.121638
 C        -0.783861         0.348140         0.892774
 C        -2.126711         0.341308         0.016326
 C        -2.635764         1.461212         0.941805
 C        -2.687714         0.905904         2.504329
 C        -1.445242         2.050638         2.761792
 C        -1.166609         1.835632         1.323170
 O        -2.183173        -0.412851         2.593870
 C        -0.906594        -0.583397         2.116892
 H         0.973200        -0.635220         0.172593
 H        -1.789891         0.906299        -0.858928
 H        -2.673543        -0.573926        -0.236601
 H        -3.444441         2.096491         0.736598
 H        -3.604124         1.016197         2.927434
 H        -1.844483         3.105268         3.024906
 H        -0.567466         1.567829         3.301606
 H        -0.592238         2.527282         0.644014
 H        -0.076887        -0.116371         2.799747
 H        -0.801718        -1.624080         1.913196
