19
Iteration:  4321charge 0 multiplicity 1
 O         0.382962         0.234274         0.106553
 C        -0.846284         0.321154         0.870130
 C        -2.126616         0.006093         0.104989
 C        -2.678043         1.266164         0.901695
 C        -2.640545         1.046279         2.491653
 C        -1.554712         2.109223         2.602536
 C        -1.283023         1.836911         1.122907
 O        -2.015983        -0.207868         2.863535
 C        -0.758334        -0.580223         2.130172
 H         1.081057         0.839785         0.402530
 H        -2.061138         0.234974        -0.978291
 H        -2.623428        -0.998632         0.201133
 H        -3.583804         1.811465         0.524960
 H        -3.568755         0.903479         3.069904
 H        -1.957900         3.151908         2.740258
 H        -0.693059         1.966234         3.350197
 H        -0.824463         2.606046         0.368707
 H         0.173958        -0.532141         2.767696
 H        -1.061239        -1.583297         1.904525
