19
Iteration:   389charge 0 multiplicity 1
 O         0.409668         0.119627        -0.004539
 C        -0.775975         0.310413         0.819153
 C        -2.094933         0.309327         0.171689
 C        -2.571849         1.465918         0.986879
 C        -2.696458         0.955703         2.483642
 C        -1.568649         2.035590         2.806093
 C        -1.044408         1.834999         1.306347
 O        -2.280694        -0.462640         2.568420
 C        -0.848757        -0.512581         2.106672
 H         1.114410         0.732837         0.165754
 H        -2.054724         0.395239        -0.955661
 H        -2.640800        -0.701992         0.301157
 H        -3.421067         2.059173         0.550979
 H        -3.550215         1.090509         3.086053
 H        -2.118610         2.997537         2.748262
 H        -0.943033         2.087865         3.705465
 H        -0.372799         2.613769         0.818564
 H        -0.194118        -0.109186         2.977010
 H        -0.574143        -1.594194         1.963492
