19
Iteration:  2116
 O         0.502633         0.078248         0.350507
 C        -0.825735         0.457348         0.799005
 C        -2.157851         0.252578        -0.043216
 C        -2.690391         1.252524         0.957894
 C        -2.498628         0.977195         2.513383
 C        -1.499783         2.056735         2.716956
 C        -1.268377         1.877099         1.109687
 O        -2.153266        -0.314849         2.849329
 C        -0.910332        -0.566670         1.982537
 H         0.619682         0.420406        -0.536970
 H        -2.243626         0.729748        -1.044831
 H        -2.633382        -0.754202        -0.000935
 H        -3.510726         1.881543         0.704512
 H        -3.472882         1.063909         2.998562
 H        -1.842592         3.040910         2.890133
 H        -0.608104         1.921368         3.284419
 H        -0.860075         2.672612         0.520020
 H         0.056407        -0.436677         2.641768
 H        -0.778343        -1.554213         1.486344
