19
Iteration:  2024
 O         0.438914        -0.028641         0.143896
 C        -0.798554         0.356965         0.844046
 C        -2.162981         0.250109         0.102750
 C        -2.690307         1.346305         0.987149
 C        -2.627793         0.969014         2.514573
 C        -1.614854         2.046288         2.740786
 C        -1.142241         1.863713         1.250633
 O        -2.081351        -0.327553         2.598678
 C        -0.839472        -0.432133         2.072060
 H         0.521049         0.688083        -0.548028
 H        -1.922626         0.734204        -0.857827
 H        -2.529535        -0.790053        -0.010619
 H        -3.528613         2.060598         0.682611
 H        -3.609650         0.949269         3.048767
 H        -1.884907         3.075309         2.732819
 H        -1.015595         1.886478         3.668163
 H        -0.493815         2.716828         0.826735
 H         0.001321        -0.011683         2.841939
 H        -0.642251        -1.538871         2.147646
