19
Iteration:   215charge 0 multiplicity 1
 O         0.415300         0.193516         0.174013
 C        -0.794400         0.370355         0.895327
 C        -2.148677         0.368565        -0.087148
 C        -2.629626         1.352580         0.953499
 C        -2.586516         0.934885         2.506254
 C        -1.507497         2.080836         2.806784
 C        -1.122466         1.849773         1.315204
 O        -2.212580        -0.420047         2.633604
 C        -0.851018        -0.617499         2.104553
 H         0.354083        -0.538825        -0.445461
 H        -1.817368         0.970054        -1.029458
 H        -2.717827        -0.452662        -0.363957
 H        -3.604345         2.017895         0.646916
 H        -3.491889         1.010923         3.076878
 H        -1.953930         3.122051         2.989116
 H        -0.851446         2.004796         3.681049
 H        -0.487704         2.491663         0.585571
 H        -0.041361        -0.462232         2.835525
 H        -0.847138        -1.727608         1.732421
