19
Iteration:   908
 O         0.423175         0.077498         0.205896
 C        -0.836442         0.380408         0.823860
 C        -2.074296         0.294361         0.025792
 C        -2.624055         1.416347         0.911833
 C        -2.621020         0.964251         2.511696
 C        -1.581233         2.061468         2.833354
 C        -1.129941         1.916282         1.274872
 O        -2.130507        -0.416397         2.695984
 C        -0.853247        -0.568566         1.984262
 H         0.456939         0.073239        -0.756662
 H        -2.025528         0.698722        -1.008613
 H        -2.698526        -0.548028        -0.109221
 H        -3.463511         2.145795         0.537159
 H        -3.610134         0.950783         3.055953
 H        -2.141510         3.016104         3.112385
 H        -0.863832         1.866706         3.674232
 H        -0.506611         2.681011         0.858965
 H        -0.017624        -0.550467         2.751792
 H        -1.062683        -1.604327         1.631178
