19
Iteration:  2776
 O         0.480425         0.134720         0.345224
 C        -0.771206         0.455276         0.765022
 C        -2.213169         0.182826         0.090061
 C        -2.738724         1.351183         0.963134
 C        -2.594580         0.935488         2.597826
 C        -1.368711         2.019932         2.655881
 C        -1.204149         1.866832         1.123034
 O        -2.168555        -0.385704         2.624079
 C        -0.918293        -0.477238         2.045515
 H         0.817757         0.658499        -0.384910
 H        -2.252224         0.547427        -0.927412
 H        -2.663487        -0.794095         0.217777
 H        -3.516700         2.010925         0.526551
 H        -3.421529         1.026003         3.300372
 H        -2.027711         2.962203         2.955467
 H        -0.641097         1.811920         3.511461
 H        -0.568529         2.652877         0.562384
 H        -0.181549        -0.452453         2.804285
 H        -0.727027        -1.537177         1.602802
