19
Iteration:  2980charge 0 multiplicity 1
 O         0.443409         0.025027         0.203094
 C        -0.751223         0.380335         0.783650
 C        -2.078248         0.291171         0.103145
 C        -2.755072         1.312048         0.979652
 C        -2.662692         0.912091         2.513003
 C        -1.448634         2.038302         2.718564
 C        -1.205229         1.934505         1.210492
 O        -2.181252        -0.371487         2.666614
 C        -0.837415        -0.455903         2.089272
 H         0.704357         0.734345        -0.422015
 H        -1.959788         0.818932        -0.879544
 H        -2.535665        -0.740659         0.037469
 H        -3.573210         1.888460         0.607408
 H        -3.582345         0.969124         3.114136
 H        -1.937393         2.986318         2.853924
 H        -0.651738         1.878589         3.476679
 H        -0.735599         2.593953         0.524814
 H        -0.120726        -0.116481         2.730877
 H        -0.838797        -1.543348         1.831493
