19
Iteration:  3149
 O         0.425389         0.293941         0.031448
 C        -0.741606         0.274381         0.820818
 C        -2.077467         0.168504         0.017643
 C        -2.592191         1.388712         0.878439
 C        -2.711094         1.018967         2.554957
 C        -1.629266         2.064810         2.807223
 C        -1.143256         1.827752         1.263906
 O        -2.182085        -0.324057         2.776527
 C        -0.808750        -0.614938         2.110359
 H         0.616803        -0.642511        -0.234451
 H        -1.799006         0.616582        -1.017885
 H        -2.699209        -0.824508        -0.045143
 H        -3.328063         2.091965         0.509863
 H        -3.692217         1.095809         2.991626
 H        -1.993775         3.110120         2.713249
 H        -1.223546         1.992387         3.788828
 H        -0.398335         2.550102         0.877927
 H         0.117013        -0.417759         2.660253
 H        -0.946954        -1.735935         1.948718
