19
Iteration:  4891charge 0 multiplicity 1
 O         0.351859         0.204277         0.061441
 C        -0.790767         0.361307         0.848445
 C        -2.119572         0.127933         0.011048
 C        -2.673984         1.216504         0.867787
 C        -2.604105         1.032425         2.549575
 C        -1.595847         2.126118         2.635249
 C        -1.268618         1.783605         1.162185
 O        -2.021965        -0.276906         2.874410
 C        -0.794806        -0.538446         2.168932
 H         1.067640        -0.159986         0.625090
 H        -1.963595         0.584055        -0.944333
 H        -2.438660        -0.932760        -0.239304
 H        -3.386741         1.973858         0.629690
 H        -3.430611         1.232696         3.115149
 H        -2.193799         3.037804         2.708892
 H        -0.906757         2.177294         3.506929
 H        -0.849916         2.624331         0.566704
 H         0.062359        -0.236278         2.775644
 H        -0.964964        -1.566608         1.922573
