19
Iteration:  2516
 O         0.542060         0.208840         0.302492
 C        -0.801107         0.377299         0.786372
 C        -2.095397         0.165288        -0.005288
 C        -2.742161         1.309974         1.054873
 C        -2.623692         1.052011         2.581172
 C        -1.428825         2.048572         2.698361
 C        -1.233977         1.804287         1.134117
 O        -2.166972        -0.274149         2.728040
 C        -0.943731        -0.637552         1.988191
 H         0.686468         0.636852        -0.580888
 H        -2.294971         0.565640        -1.086729
 H        -2.457842        -0.913027         0.239394
 H        -3.653871         1.839168         0.695747
 H        -3.585035         1.336074         2.949467
 H        -1.852347         3.076771         2.781401
 H        -0.671306         1.790493         3.494377
 H        -0.638835         2.517462         0.556271
 H        -0.001175        -0.659428         2.625936
 H        -1.000979        -1.696121         1.553772
