19
Iteration:  2303charge 0 multiplicity 1
 O         0.432646         0.118330         0.036960
 C        -0.733994         0.359098         0.802060
 C        -2.122438         0.134466         0.145837
 C        -2.626169         1.372690         0.947173
 C        -2.708120         0.983375         2.419550
 C        -1.487556         2.079331         2.833379
 C        -1.102502         1.814098         1.203290
 O        -2.205704        -0.374006         2.686039
 C        -0.880406        -0.466810         2.153739
 H         0.509308         0.944787        -0.463158
 H        -2.038127         0.463331        -0.943517
 H        -2.585038        -0.821614         0.415261
 H        -3.450138         2.022970         0.653939
 H        -3.640367         1.194774         3.036384
 H        -1.932009         3.020441         2.788990
 H        -0.864995         1.902197         3.676154
 H        -0.468740         2.483585         0.576449
 H        -0.348545         0.008888         2.890355
 H        -0.774725        -1.567015         2.295134
