19
Iteration:  1974charge 0 multiplicity 1
 O         0.492100         0.249999         0.317290
 C        -0.781040         0.372204         0.785710
 C        -2.109877         0.205897        -0.002637
 C        -2.722551         1.254717         0.993239
 C        -2.610997         1.052473         2.522143
 C        -1.465887         1.994313         2.728770
 C        -1.212786         1.813297         1.121341
 O        -2.147172        -0.287519         2.824515
 C        -0.922117        -0.629514         1.953752
 H         0.411741         0.626289        -0.560247
 H        -2.044705         0.692996        -0.980863
 H        -2.556161        -0.817410        -0.074238
 H        -3.445916         1.947487         0.527054
 H        -3.529359         1.386460         3.091283
 H        -1.606799         3.126489         3.056908
 H        -0.608920         1.760729         3.374137
 H        -0.858065         2.499056         0.376999
 H        -0.218993        -0.838518         2.632533
 H        -1.053939        -1.657622         1.633292
