19
Iteration:  2310
 O         0.430808         0.101197         0.040681
 C        -0.791133         0.355494         0.813884
 C        -2.162540         0.153159         0.134841
 C        -2.643882         1.342307         0.964828
 C        -2.709720         0.949021         2.435601
 C        -1.528250         2.027854         2.782222
 C        -1.025197         1.841051         1.211625
 O        -2.222800        -0.336841         2.649554
 C        -0.817831        -0.437535         2.209570
 H         0.598279         0.846455        -0.536424
 H        -2.040698         0.510053        -0.832858
 H        -2.721127        -0.781053         0.218253
 H        -3.432651         2.067531         0.696753
 H        -3.624575         1.197256         3.002038
 H        -2.026379         3.042201         2.774837
 H        -0.797277         1.884502         3.655899
 H        -0.336297         2.547690         0.722335
 H        -0.114967         0.078986         3.019881
 H        -0.590186        -1.524259         2.158827
