19
Iteration:  1346charge 0 multiplicity 1
 O         0.414099         0.131180         0.078959
 C        -0.763412         0.376671         0.804382
 C        -2.112774         0.140746         0.230859
 C        -2.553270         1.423346         0.948080
 C        -2.766734         0.982406         2.460672
 C        -1.525304         2.014337         2.716658
 C        -1.124725         1.806403         1.275321
 O        -2.189295        -0.378331         2.643174
 C        -0.822140        -0.439900         2.113844
 H         0.355484         0.580615        -0.819202
 H        -1.996346         0.078289        -0.912221
 H        -2.603834        -0.758881         0.663272
 H        -3.309915         2.135717         0.510694
 H        -3.806598         0.971295         2.875364
 H        -1.964014         3.033618         2.769160
 H        -0.933773         1.895279         3.689632
 H        -0.366087         2.629258         0.886424
 H        -0.149314         0.063290         2.810558
 H        -0.699553        -1.442260         1.932367
