19
Iteration:  4681
 O         0.415808         0.314845         0.130096
 C        -0.806325         0.305553         0.865859
 C        -2.131078         0.059713         0.164447
 C        -2.645848         1.216256         0.995373
 C        -2.597734         0.984259         2.447233
 C        -1.572340         2.154923         2.582707
 C        -1.235105         1.808911         1.151768
 O        -2.082379        -0.292675         2.743534
 C        -0.805296        -0.473226         2.152343
 H         0.562962        -0.612728        -0.086544
 H        -2.305525         0.136013        -0.949376
 H        -2.725730        -0.834147         0.421638
 H        -3.450344         1.928692         0.646407
 H        -3.598612         0.973687         2.917828
 H        -1.985706         3.159191         2.650508
 H        -0.810150         2.110250         3.436922
 H        -0.857189         2.625445         0.477642
 H        -0.014883        -0.036159         2.888149
 H        -0.519134        -1.588396         1.863177
