19
Iteration:  3029charge 0 multiplicity 1
 O         0.394406         0.236976         0.123621
 C        -0.749401         0.333591         0.887275
 C        -2.145787         0.215669         0.170011
 C        -2.580708         1.404803         0.900085
 C        -2.631054         1.047071         2.397726
 C        -1.643274         2.047104         2.674498
 C        -1.137570         1.860017         1.322570
 O        -2.089240        -0.357792         2.711988
 C        -0.872495        -0.654600         2.073805
 H         0.062792        -0.223777        -0.657712
 H        -1.868489         0.377451        -0.917529
 H        -2.496726        -0.794296         0.442798
 H        -3.453089         2.076479         0.650737
 H        -3.613505         0.979509         2.856661
 H        -2.106073         3.061878         2.779190
 H        -1.115153         1.715844         3.548774
 H        -0.321201         2.507690         0.890938
 H         0.018071        -0.287997         2.835307
 H        -0.760737        -1.631893         1.651404
