19
Iteration:  4596charge 0 multiplicity 1
 O         0.439693         0.171450         0.335909
 C        -0.825418         0.389900         0.871735
 C        -2.151524         0.102539         0.101188
 C        -2.797842         1.266076         1.013537
 C        -2.584950         0.934406         2.496575
 C        -1.443558         2.119356         2.521297
 C        -1.324340         1.901411         1.021235
 O        -2.080927        -0.350037         2.775551
 C        -0.724189        -0.450888         2.130085
 H         0.549499         0.254374        -0.629000
 H        -2.161094         0.463673        -0.943114
 H        -2.679968        -0.925317         0.275279
 H        -3.608728         1.860512         0.652100
 H        -3.483705         1.025085         3.046160
 H        -2.122329         2.908971         2.780412
 H        -0.472768         2.024353         3.089493
 H        -0.894032         2.585809         0.222495
 H         0.028653        -0.129840         2.748125
 H        -0.569742        -1.478684         1.681049
