19
Iteration:  4493charge 0 multiplicity 1
 O         0.454001         0.091197         0.083198
 C        -0.770603         0.328256         0.786419
 C        -2.153699         0.103786         0.105025
 C        -2.780445         1.267108         1.003982
 C        -2.662151         0.918858         2.510257
 C        -1.588618         2.107689         2.654480
 C        -1.289839         1.857758         1.156508
 O        -2.049498        -0.259766         2.699833
 C        -0.685951        -0.308980         2.228294
 H         0.733437        -0.838179         0.288605
 H        -2.297915         0.530651        -0.998496
 H        -2.397058        -0.985030         0.079113
 H        -3.577843         1.965281         0.603725
 H        -3.567509         0.983344         3.219364
 H        -2.087970         3.110482         2.770048
 H        -0.696286         2.118424         3.322325
 H        -0.945413         2.626085         0.470632
 H         0.107564         0.230455         2.649766
 H        -0.464087        -1.450713         2.283690
