19
Iteration:   619
 O         0.484066         0.224902         0.182443
 C        -0.777477         0.279841         0.838232
 C        -2.160538         0.260532         0.060688
 C        -2.634491         1.413571         0.938824
 C        -2.602629         0.898824         2.457808
 C        -1.358523         2.013143         2.692683
 C        -1.176799         1.857961         1.237353
 O        -2.289903        -0.400379         2.680752
 C        -0.954262        -0.614871         2.103751
 H         0.576618         1.161097         0.023098
 H        -2.077631         0.564403        -1.006946
 H        -2.815645        -0.603604         0.098636
 H        -3.445945         2.024220         0.616325
 H        -3.485738         1.206792         2.923914
 H        -1.743354         3.045939         3.093505
 H        -0.470161         2.125972         3.442255
 H        -0.474382         2.698746         0.919528
 H        -0.247092        -0.208771         2.849452
 H        -0.847621        -1.642548         1.834364
