19
Iteration:  4375
 O         0.353715         0.086574         0.074463
 C        -0.841686         0.337151         0.895314
 C        -2.059574         0.130105         0.135816
 C        -2.764583         1.265608         0.932200
 C        -2.621104         1.031616         2.431163
 C        -1.574681         2.126374         2.611708
 C        -1.298717         1.896883         1.151430
 O        -1.986793        -0.405744         2.736792
 C        -0.738722        -0.296575         2.206694
 H         0.813054        -0.734271         0.362453
 H        -1.820638         0.363791        -0.906072
 H        -2.652390        -0.778428         0.213044
 H        -3.755715         1.742034         0.624610
 H        -3.526067         0.885999         3.057928
 H        -1.933266         3.149471         2.847070
 H        -0.742067         2.079751         3.335898
 H        -1.053372         2.712990         0.414974
 H         0.077378         0.034794         2.986007
 H        -0.387640        -1.356849         2.265788
