19
Iteration:  2227charge 0 multiplicity 1
 O         0.560967         0.055876         0.262344
 C        -0.886973         0.394417         0.782035
 C        -2.091271         0.271835        -0.022595
 C        -2.771595         1.275639         0.958248
 C        -2.569627         1.021856         2.546906
 C        -1.481695         2.045851         2.705893
 C        -1.209333         1.838382         1.167672
 O        -2.132250        -0.355354         2.785572
 C        -0.909697        -0.483479         2.064075
 H         0.461636         0.423412        -0.653387
 H        -2.088463         0.719696        -1.073388
 H        -2.570590        -0.713902        -0.173115
 H        -3.615182         1.860248         0.678274
 H        -3.449642         1.232886         3.161320
 H        -1.885984         3.044757         2.806618
 H        -0.787467         1.995978         3.517891
 H        -0.829244         2.658874         0.566918
 H        -0.056995        -0.374057         2.787324
 H        -0.887929        -1.551902         1.758122
