19
Iteration:  2471
 O         0.327633         0.017230         0.107167
 C        -0.755540         0.372168         0.839570
 C        -2.155652         0.301722         0.074996
 C        -2.632390         1.371041         0.842576
 C        -2.680423         0.955022         2.459653
 C        -1.578715         2.071572         2.724318
 C        -1.099640         1.858552         1.276152
 O        -2.114390        -0.403459         2.756461
 C        -0.804445        -0.473151         2.159779
 H         0.893474         0.714808        -0.273410
 H        -2.069347         0.740057        -1.008251
 H        -2.547850        -0.764021         0.085837
 H        -3.418508         1.999155         0.446026
 H        -3.459470         0.972935         3.155900
 H        -2.057813         3.074085         2.741730
 H        -0.994170         1.900901         3.614157
 H        -0.669206         2.699361         0.733265
 H         0.076084        -0.198409         2.785405
 H        -0.585501        -1.567175         1.938156
