19
Iteration:  2102
 O         0.571179         0.157509         0.320536
 C        -0.810100         0.299129         0.724240
 C        -2.195060         0.209592        -0.025653
 C        -2.685165         1.307011         0.997705
 C        -2.636554         0.985771         2.545473
 C        -1.426640         2.116869         2.642442
 C        -1.244314         1.911031         1.219728
 O        -2.097386        -0.333441         2.783882
 C        -0.957720        -0.581933         2.015075
 H         0.706999         0.383899        -0.626046
 H        -2.155368         0.710117        -1.006531
 H        -2.620113        -0.831590        -0.049740
 H        -3.697889         1.809528         0.738663
 H        -3.537386         1.220555         3.211831
 H        -2.072360         2.902388         2.793473
 H        -0.655516         1.876563         3.382234
 H        -0.723750         2.678565         0.540078
 H        -0.028037        -0.388225         2.639002
 H        -1.220595        -1.632345         1.848461
