19
Iteration:  1732charge 0 multiplicity 1
 O         0.413551         0.079695         0.158342
 C        -0.791619         0.369487         0.866629
 C        -2.113862         0.202935         0.050487
 C        -2.685165         1.348641         0.981283
 C        -2.605218         0.980742         2.481670
 C        -1.524968         2.004531         2.714644
 C        -1.201252         1.834322         1.196903
 O        -2.118538        -0.290998         2.683184
 C        -0.839368        -0.479856         2.131465
 H         0.715103         0.984331        -0.105925
 H        -2.018032         0.376770        -0.994814
 H        -2.723713        -0.715186         0.081326
 H        -3.499033         2.005108         0.616504
 H        -3.589789         1.026751         2.998106
 H        -1.954063         3.043399         2.812019
 H        -0.780397         1.558935         3.409736
 H        -0.681451         2.613813         0.708319
 H         0.009205        -0.314899         2.724424
 H        -0.956930        -1.446971         1.771369
