19
Iteration:   673charge 0 multiplicity 1
 O         0.494553        -0.030859         0.088662
 C        -0.764213         0.361406         0.812846
 C        -2.104426         0.385380        -0.047465
 C        -2.610544         1.406754         0.983697
 C        -2.613682         0.958625         2.489479
 C        -1.665223         2.040853         2.853978
 C        -1.136752         1.935860         1.275256
 O        -2.176693        -0.402276         2.711093
 C        -0.875135        -0.543061         2.111826
 H         0.303391        -0.023748        -0.860418
 H        -2.022742         0.796882        -1.034978
 H        -2.646403        -0.524143        -0.262191
 H        -3.371388         2.087525         0.742208
 H        -3.523939         1.201062         2.986266
 H        -2.269355         3.013302         3.055288
 H        -1.023872         1.587292         3.722178
 H        -0.573566         2.815625         0.874692
 H        -0.079781        -0.150523         2.826880
 H        -0.532552        -1.546241         1.960495
