19
Iteration:   622
 O         0.466750         0.213300         0.178699
 C        -0.782561         0.272803         0.830927
 C        -2.156595         0.233557         0.084061
 C        -2.627390         1.419391         0.928592
 C        -2.605479         0.911839         2.454239
 C        -1.372054         2.021245         2.732633
 C        -1.142525         1.898640         1.248548
 O        -2.275658        -0.405415         2.660455
 C        -0.955012        -0.593805         2.104581
 H         0.588041         1.175541        -0.025131
 H        -2.136729         0.517522        -1.053739
 H        -2.828584        -0.621590         0.068156
 H        -3.549803         1.995680         0.549644
 H        -3.518144         1.177038         2.948872
 H        -1.787822         3.012194         3.027385
 H        -0.557531         1.994326         3.423400
 H        -0.434104         2.696020         0.883327
 H        -0.211252        -0.296746         2.837102
 H        -0.821555        -1.665088         1.870373
