19
Iteration:  2434charge 0 multiplicity 1
 O         0.479843        -0.001247         0.118857
 C        -0.766435         0.415670         0.802717
 C        -2.181656         0.202007         0.135987
 C        -2.676017         1.308115         0.968699
 C        -2.649786         1.056134         2.518875
 C        -1.496879         2.053800         2.755153
 C        -1.164997         1.888267         1.251287
 O        -2.169016        -0.386811         2.591215
 C        -0.853564        -0.448603         2.122011
 H         0.837031         0.764911        -0.345666
 H        -2.206066         0.418018        -0.952180
 H        -2.662533        -0.789926         0.184421
 H        -3.384050         1.889027         0.360838
 H        -3.704517         1.153389         3.026669
 H        -1.833749         3.025782         3.068595
 H        -0.818334         1.782235         3.576910
 H        -0.841100         2.785844         0.670908
 H        -0.157720        -0.020979         2.931891
 H        -0.626824        -1.627627         2.016547
