19
Iteration:  2647
 O         0.522979         0.178153         0.261464
 C        -0.852556         0.266255         0.738752
 C        -2.170318         0.228257         0.005994
 C        -2.677876         1.323307         0.922756
 C        -2.571033         0.929929         2.605158
 C        -1.401387         1.988918         2.727506
 C        -1.248686         1.833012         1.131075
 O        -2.221921        -0.339159         2.715738
 C        -0.870986        -0.449781         2.111997
 H         0.822352         1.098413         0.074913
 H        -2.100845         0.519399        -1.069049
 H        -2.791047        -0.700367        -0.036669
 H        -3.586669         1.818639         0.480198
 H        -3.332732         1.288042         3.280447
 H        -1.761560         2.951554         2.978576
 H        -0.458295         1.928663         3.219743
 H        -0.948182         2.700997         0.497016
 H        -0.091870        -0.037857         2.709076
 H        -0.952158        -1.554766         1.876191
