19
Iteration:  4159charge 0 multiplicity 1
 O         0.421337         0.196220         0.312236
 C        -0.793596         0.427070         0.834795
 C        -2.146748         0.145658         0.098654
 C        -2.742726         1.219842         0.949811
 C        -2.559192         0.971487         2.536376
 C        -1.485629         2.130926         2.542799
 C        -1.364463         1.884342         1.003792
 O        -2.015669        -0.385446         2.818044
 C        -0.817151        -0.411579         2.117458
 H         0.276435        -0.570060        -0.273170
 H        -2.267264         0.274592        -0.952547
 H        -2.478813        -0.950164         0.268599
 H        -3.667106         1.791985         0.691120
 H        -3.388210         0.975009         3.244429
 H        -1.929382         3.055082         2.896463
 H        -0.588304         2.025555         3.179966
 H        -0.824399         2.407628         0.165352
 H         0.132083        -0.144308         2.635931
 H        -0.736411        -1.358053         1.625698
