19
Iteration:  4997
 O         0.480386         0.207376         0.095344
 C        -0.845344         0.327478         0.853283
 C        -2.131739         0.111943        -0.030617
 C        -2.693660         1.207445         0.936922
 C        -2.634815         0.937183         2.526143
 C        -1.506900         2.176668         2.639514
 C        -1.266994         1.761030         1.137665
 O        -2.072480        -0.237669         2.949012
 C        -0.850929        -0.541909         2.110740
 H         0.944364         1.051363         0.291208
 H        -1.971581         0.560538        -1.033803
 H        -2.698898        -0.795527        -0.095936
 H        -3.508160         1.946176         0.566762
 H        -3.504369         1.225761         3.155816
 H        -2.083554         3.079556         2.596759
 H        -0.721129         2.176922         3.448603
 H        -0.908789         2.475053         0.375821
 H         0.086515        -0.564451         2.649139
 H        -0.892526        -1.548608         1.819358
