19
Iteration:  4796charge 0 multiplicity 1
 O         0.282545         0.054069         0.026199
 C        -0.790392         0.403388         0.836389
 C        -2.022470         0.095470         0.137873
 C        -2.684009         1.294716         0.874958
 C        -2.643991         0.939370         2.457382
 C        -1.610334         2.069065         2.698699
 C        -1.255809         1.876697         1.217836
 O        -2.055149        -0.268474         2.740824
 C        -0.747083        -0.386706         2.220331
 H         1.133650         0.485905         0.111746
 H        -2.043604         0.202503        -0.966494
 H        -2.553881        -0.868839         0.444992
 H        -3.453412         1.905146         0.349517
 H        -3.616144         0.855958         3.065853
 H        -1.971948         3.129471         2.812003
 H        -0.833808         1.972800         3.449033
 H        -0.651776         2.593894         0.687872
 H        -0.027653         0.065543         2.931999
 H        -0.474958        -1.532838         2.074224
