19
Iteration:  1013
 O         0.495374         0.301701         0.253728
 C        -0.812433         0.326191         0.811154
 C        -2.175646         0.221067        -0.022909
 C        -2.652775         1.373452         0.992777
 C        -2.624291         0.985996         2.574996
 C        -1.409119         2.070778         2.731157
 C        -1.249631         1.764825         1.230683
 O        -2.189012        -0.324848         2.649779
 C        -0.896017        -0.615635         2.014652
 H         0.754459        -0.617696        -0.039882
 H        -1.987478         0.783501        -0.987446
 H        -2.632101        -0.799891         0.114982
 H        -3.400888         2.047554         0.735829
 H        -3.540715         1.025677         3.125264
 H        -1.760941         3.103820         2.892791
 H        -0.590343         1.890693         3.435381
 H        -0.894684         2.482903         0.330158
 H        -0.155306        -0.530324         2.821970
 H        -0.754617        -1.642562         1.687410
