19
Iteration:  3039
 O         0.407055         0.246973         0.146693
 C        -0.779972         0.370376         0.921153
 C        -2.120815         0.130716         0.112848
 C        -2.616933         1.364221         0.924721
 C        -2.638002         0.993018         2.424438
 C        -1.636736         2.144307         2.721929
 C        -1.093261         1.904365         1.285373
 O        -2.108840        -0.359810         2.729430
 C        -0.843743        -0.653946         2.011531
 H         0.329387        -0.453541        -0.502833
 H        -2.076200         0.500925        -0.989040
 H        -2.685153        -0.862619         0.115156
 H        -3.212370         2.252001         0.599795
 H        -3.560846         1.090328         3.007735
 H        -2.169592         3.103295         2.907255
 H        -1.030543         1.971622         3.590811
 H        -0.492438         2.631625         0.669339
 H        -0.001174        -0.930933         2.686226
 H        -1.012184        -1.641333         1.638720
