19
Iteration:  2795charge 0 multiplicity 1
 O         0.574868         0.242516         0.349762
 C        -0.840465         0.298088         0.752826
 C        -2.230367         0.169755         0.023191
 C        -2.673768         1.346937         1.036823
 C        -2.560493         1.052591         2.519988
 C        -1.424436         2.074522         2.656610
 C        -1.223671         1.782063         1.222667
 O        -2.170176        -0.347339         2.705939
 C        -0.945193        -0.623698         1.950303
 H         0.633417         1.001038        -0.257296
 H        -2.238021         0.618748        -0.938945
 H        -2.628988        -0.821644         0.239314
 H        -3.487720         1.996961         0.835002
 H        -3.530721         1.197664         2.992964
 H        -1.806869         3.045173         2.835239
 H        -0.623264         1.731199         3.280551
 H        -0.944619         2.585023         0.567972
 H        -0.014420        -0.413253         2.547932
 H        -0.947068        -1.585984         1.624852
