19
Iteration:  1197charge 0 multiplicity 1
 O         0.393356        -0.018088         0.097226
 C        -0.755374         0.398090         0.883836
 C        -2.069609         0.280359         0.092335
 C        -2.665275         1.365604         0.902938
 C        -2.723741         0.964061         2.436364
 C        -1.549707         1.989790         2.768908
 C        -1.167125         1.891753         1.329667
 O        -2.126771        -0.343197         2.678116
 C        -0.816062        -0.398274         2.106534
 H         0.290783         0.444581        -0.778298
 H        -1.917554         0.687459        -0.849272
 H        -2.577787        -0.727159         0.037154
 H        -3.570384         1.986442         0.550251
 H        -3.655032         0.976213         3.007617
 H        -1.976772         2.982293         2.909550
 H        -0.844078         1.649430         3.515562
 H        -0.495095         2.483114         0.838753
 H         0.088341        -0.229050         2.704468
 H        -0.543778        -1.488176         1.973985
