19
Iteration:  4182
 O         0.470391         0.191053         0.240647
 C        -0.812245         0.351132         0.781507
 C        -2.198879         0.063441         0.143989
 C        -2.732725         1.270804         0.912205
 C        -2.586861         0.934598         2.496104
 C        -1.514259         2.130325         2.598719
 C        -1.324812         1.937893         1.078803
 O        -2.044888        -0.283861         2.835868
 C        -0.730491        -0.487818         2.136612
 H         0.340263        -0.394589        -0.541194
 H        -2.090322         0.219014        -0.898644
 H        -2.799397        -0.911872         0.166725
 H        -3.706259         1.743572         0.706905
 H        -3.506618         0.956390         3.098762
 H        -1.968312         3.081825         2.806346
 H        -0.770849         2.044404         3.365583
 H        -0.902685         2.791760         0.484279
 H         0.188321        -0.030288         2.560637
 H        -0.680365        -1.529023         1.820211
