19
Iteration:  4218charge 0 multiplicity 1
 O         0.375188         0.236622        -0.024758
 C        -0.690675         0.231170         0.844648
 C        -2.087676         0.042810         0.141316
 C        -2.654343         1.203919         0.942708
 C        -2.693334         1.009892         2.508132
 C        -1.576766         2.116003         2.700563
 C        -1.208927         1.868081         1.160964
 O        -2.143656        -0.256738         2.853249
 C        -0.741106        -0.388196         2.174091
 H         0.198068         0.038838        -0.972665
 H        -2.020635         0.433373        -0.884259
 H        -2.479532        -0.942078         0.197651
 H        -3.539708         1.724460         0.589108
 H        -3.675338         0.951175         3.031157
 H        -2.072701         3.054047         2.501832
 H        -0.907092         2.204586         3.500399
 H        -0.654657         2.501237         0.543348
 H         0.088145        -0.206483         2.963387
 H        -0.702367        -1.551262         2.170044
