19
Iteration:  4078
 O         0.408864         0.146421         0.081690
 C        -0.748761         0.339714         0.841347
 C        -2.159702         0.068408         0.201397
 C        -2.706088         1.307179         0.966246
 C        -2.653040         0.958007         2.491279
 C        -1.589993         2.137185         2.689692
 C        -1.249277         1.884799         1.136357
 O        -2.066356        -0.291849         2.697702
 C        -0.733317        -0.430471         2.157041
 H         0.628950        -0.799267        -0.103358
 H        -2.006803         0.186105        -0.962132
 H        -2.595823        -0.903885         0.331360
 H        -3.532315         1.975384         0.726876
 H        -3.628147         1.003924         3.026041
 H        -2.194245         3.093784         2.551541
 H        -0.771133         2.176816         3.493985
 H        -0.883237         2.689633         0.431896
 H         0.058440        -0.000400         2.828437
 H        -0.370594        -1.383602         1.964403
