19
Iteration:  2943charge 0 multiplicity 1
 O         0.509000         0.199223         0.296121
 C        -0.851311         0.296849         0.775978
 C        -2.221171         0.256280         0.005403
 C        -2.650374         1.332614         0.962719
 C        -2.609692         0.929033         2.509136
 C        -1.473003         2.133033         2.699043
 C        -1.176539         1.812734         1.204016
 O        -2.088045        -0.282938         2.821934
 C        -0.961164        -0.672131         1.906232
 H         0.761077         1.083752         0.021329
 H        -2.110073         0.579421        -1.025733
 H        -2.462412        -0.774322         0.027230
 H        -3.493208         1.954023         0.521371
 H        -3.563620         1.045967         3.041224
 H        -2.157930         3.020308         2.949062
 H        -0.700129         2.091847         3.526887
 H        -0.587185         2.664464         0.706547
 H        -0.057771        -0.744544         2.515676
 H        -0.940590        -1.759889         1.644375
