19
Iteration:  3173charge 0 multiplicity 1
 O         0.395366         0.205959         0.220707
 C        -0.821307         0.374285         0.847543
 C        -2.110675         0.245426         0.000025
 C        -2.625791         1.409502         0.925423
 C        -2.702816         0.881573         2.396104
 C        -1.514165         1.960287         2.680975
 C        -1.168262         1.876347         1.243756
 O        -2.112024        -0.317767         2.777141
 C        -0.833119        -0.523125         2.131403
 H         0.164594        -0.440461        -0.459763
 H        -1.821300         0.723191        -0.962516
 H        -2.467945        -0.861071        -0.087318
 H        -3.362832         2.142283         0.817750
 H        -3.715015         1.060757         2.709303
 H        -1.997919         2.863047         3.027273
 H        -0.805103         1.774364         3.469303
 H        -0.495718         2.486824         0.637731
 H         0.068707        -0.164529         2.705188
 H        -0.686356        -1.596639         2.040362
