19
Iteration:  2892
 O         0.381583         0.077048         0.191343
 C        -0.762590         0.415208         0.868365
 C        -2.140985         0.229986         0.049677
 C        -2.603076         1.354107         0.954863
 C        -2.609073         0.928382         2.450490
 C        -1.470329         1.997732         2.735286
 C        -1.204268         1.927508         1.242432
 O        -2.182754        -0.426094         2.632058
 C        -0.854006        -0.393155         2.133060
 H         0.249456         0.326834        -0.741670
 H        -1.867619         0.514507        -1.010636
 H        -2.758818        -0.726097         0.225337
 H        -3.363655         2.055584         0.742963
 H        -3.515465         1.063981         3.040395
 H        -1.894805         2.948620         2.913806
 H        -0.818881         1.717038         3.573566
 H        -0.722532         2.784551         0.837832
 H        -0.016167        -0.326902         2.908018
 H        -0.639526        -1.410511         1.686979
