19
Iteration:  1199
 O         0.394010        -0.013029         0.080548
 C        -0.744248         0.391698         0.896641
 C        -2.076135         0.269789         0.086346
 C        -2.668080         1.361102         0.899968
 C        -2.729585         0.965791         2.438873
 C        -1.533201         1.969584         2.774019
 C        -1.159297         1.894929         1.318769
 O        -2.139401        -0.339812         2.677199
 C        -0.821614        -0.381150         2.110935
 H         0.296246         0.483510        -0.748622
 H        -1.974140         0.744804        -0.893707
 H        -2.530122        -0.749249         0.088031
 H        -3.511315         1.995717         0.567575
 H        -3.687799         0.954815         3.016571
 H        -2.030687         2.947652         2.907061
 H        -0.828751         1.675031         3.556589
 H        -0.472424         2.545912         0.809983
 H         0.100725        -0.216144         2.805225
 H        -0.548525        -1.516882         2.021157
