19
Iteration:  4139
 O         0.520486         0.282142         0.116635
 C        -0.791361         0.283037         0.798597
 C        -2.199270         0.038765         0.044913
 C        -2.731999         1.155701         1.027823
 C        -2.621299         1.085004         2.544831
 C        -1.494178         2.112427         2.599135
 C        -1.308344         1.849190         1.165546
 O        -2.087549        -0.290099         2.827630
 C        -0.829258        -0.446250         2.121982
 H         0.704928        -0.600632        -0.296648
 H        -2.136480         0.500507        -0.902035
 H        -2.435073        -1.053080        -0.019678
 H        -3.518555         1.788094         0.596160
 H        -3.494322         1.127894         3.191672
 H        -1.882582         3.105859         2.659956
 H        -0.627355         2.146024         3.179199
 H        -0.999074         2.627266         0.500291
 H        -0.113718         0.014170         2.946662
 H        -0.613088        -1.572049         1.967632
