19
Iteration:  1614charge 0 multiplicity 1
 O         0.419205        -0.016486         0.066382
 C        -0.752286         0.318011         0.861544
 C        -2.138010         0.261905         0.038784
 C        -2.696451         1.339155         0.950069
 C        -2.623890         0.951872         2.455187
 C        -1.582595         2.054029         2.811758
 C        -1.166878         1.859601         1.276159
 O        -2.152654        -0.321952         2.586850
 C        -0.760275        -0.425245         2.275005
 H         0.476649         0.651051        -0.613082
 H        -2.182696         0.593678        -1.012603
 H        -2.666341        -0.736998         0.013720
 H        -3.314122         2.133835         0.601173
 H        -3.552917         1.050520         3.065251
 H        -2.154171         2.974996         2.696656
 H        -0.898886         1.980962         3.651076
 H        -0.653726         2.743960         0.659966
 H        -0.000965         0.076409         2.966827
 H        -0.569494        -1.492312         2.056429
