19
Iteration:  3606
 O         0.342183         0.150648         0.176610
 C        -0.804416         0.338356         0.872308
 C        -2.061735         0.166486         0.031374
 C        -2.720945         1.183081         0.872058
 C        -2.571395         0.990363         2.509071
 C        -1.466675         2.100560         2.662673
 C        -1.277779         1.884139         1.105588
 O        -2.090675        -0.303272         2.824292
 C        -0.862351        -0.491218         2.148863
 H         0.868633         0.941461         0.368212
 H        -1.895378         0.650932        -0.989175
 H        -2.539825        -0.798102        -0.279802
 H        -3.496883         1.847450         0.483991
 H        -3.475711         1.212837         3.110718
 H        -1.996071         2.998481         2.923150
 H        -0.580548         1.930558         3.219522
 H        -0.880787         2.552219         0.325590
 H        -0.033268        -0.439394         3.051322
 H        -0.712865        -1.634860         1.912893
