19
Iteration:  3733
 O         0.500796         0.199439         0.337274
 C        -0.854685         0.377959         0.844402
 C        -2.201746         0.096137         0.117167
 C        -2.785150         1.361013         0.954013
 C        -2.588955         0.939936         2.465169
 C        -1.484368         2.086116         2.555917
 C        -1.276098         1.887546         1.101499
 O        -2.042435        -0.349437         2.718715
 C        -0.792926        -0.495592         2.131466
 H         0.482531         0.099466        -0.645571
 H        -2.110810         0.174280        -0.934030
 H        -2.553588        -0.970066         0.227341
 H        -3.662194         1.935192         0.592443
 H        -3.452084         1.025090         3.047623
 H        -2.026936         2.975942         2.963831
 H        -0.605032         1.959782         3.253985
 H        -0.807913         2.644558         0.468415
 H         0.160033        -0.068498         2.738563
 H        -0.844947        -1.525205         1.924326
