19
Iteration:  2785
 O         0.558488         0.191696         0.363906
 C        -0.834969         0.404592         0.807536
 C        -2.245549         0.189886         0.090300
 C        -2.706882         1.302366         0.984677
 C        -2.635836         0.974401         2.582457
 C        -1.383470         2.012366         2.700358
 C        -1.178467         1.826459         1.140850
 O        -2.176314        -0.351029         2.649276
 C        -0.924390        -0.528206         1.925066
 H         0.771468         0.852404        -0.306996
 H        -2.241637         0.399818        -0.935970
 H        -2.798713        -0.740002         0.085252
 H        -3.561008         1.839432         0.642652
 H        -3.410130         1.070760         3.339357
 H        -1.662175         3.060784         2.664920
 H        -0.532379         2.065809         3.375868
 H        -0.611587         2.533783         0.501742
 H        -0.069000        -0.340655         2.587264
 H        -0.982571        -1.494368         1.628143
