19
Iteration:  3542
 O         0.395165         0.064223         0.145040
 C        -0.703834         0.361755         0.914938
 C        -2.076279         0.142993         0.157743
 C        -2.693278         1.305748         0.890619
 C        -2.632330         1.004132         2.486705
 C        -1.528379         2.100865         2.688445
 C        -1.264999         1.907316         1.183380
 O        -2.165109        -0.362115         2.690574
 C        -0.793369        -0.445417         2.127889
 H         0.550456         0.710420        -0.555364
 H        -2.127693         0.258480        -0.957557
 H        -2.379920        -0.920208         0.225461
 H        -3.566083         1.763703         0.426990
 H        -3.550971         1.099594         3.157841
 H        -1.889975         3.105782         2.942793
 H        -0.751363         1.982751         3.451779
 H        -0.867850         2.600860         0.372910
 H        -0.050492        -0.055798         2.785634
 H        -0.636136        -1.428381         1.947003
