19
Iteration:  3210charge 0 multiplicity 1
 O         0.578884         0.106149         0.275039
 C        -0.759781         0.417077         0.836864
 C        -2.128349         0.133755         0.045055
 C        -2.666111         1.294223         1.085221
 C        -2.607553         0.967151         2.542487
 C        -1.431395         2.141599         2.751891
 C        -1.263166         1.884418         1.188660
 O        -2.276446        -0.345452         2.575585
 C        -0.901041        -0.528370         1.992227
 H         0.562411         0.272587        -0.696833
 H        -2.290045         0.478476        -0.938939
 H        -2.407910        -0.868988         0.079470
 H        -3.482535         2.027529         0.767250
 H        -3.561864         0.926512         3.137099
 H        -2.023513         3.073268         2.817086
 H        -0.504074         2.070651         3.387935
 H        -0.811319         2.699051         0.595492
 H        -0.152252        -0.139771         2.761660
 H        -0.974189        -1.547304         1.736151
