19
Iteration:  2109
 O         0.562307         0.113470         0.345494
 C        -0.843442         0.382744         0.723387
 C        -2.197688         0.256237        -0.017369
 C        -2.676817         1.252932         0.975874
 C        -2.539624         0.950530         2.529639
 C        -1.463200         2.051604         2.669653
 C        -1.277891         1.914097         1.171757
 O        -2.153599        -0.293704         2.818859
 C        -0.911524        -0.573509         2.011206
 H         0.619759         0.399478        -0.574059
 H        -2.311205         0.624229        -1.049997
 H        -2.564789        -0.753176        -0.147015
 H        -3.584959         1.762472         0.664873
 H        -3.475158         1.159950         3.020758
 H        -1.941888         3.134021         2.959781
 H        -0.585478         2.135161         3.411814
 H        -0.673103         2.662214         0.631278
 H         0.021691        -0.525198         2.499887
 H        -1.016345        -1.648446         1.756481
