19
Iteration:  2984
 O         0.454227         0.032824         0.174504
 C        -0.771351         0.366071         0.772977
 C        -2.037169         0.274721         0.092868
 C        -2.744019         1.312401         0.990507
 C        -2.666873         0.941381         2.508630
 C        -1.461964         2.016746         2.742642
 C        -1.191608         1.914164         1.224447
 O        -2.181778        -0.379630         2.653709
 C        -0.872212        -0.436642         2.090723
 H         0.612867         0.708522        -0.511523
 H        -1.999147         0.886446        -0.871409
 H        -2.591281        -0.705925         0.138623
 H        -3.695312         1.806681         0.628657
 H        -3.592582         1.030467         3.107385
 H        -1.872665         3.046758         2.827421
 H        -0.699089         1.836376         3.473474
 H        -0.707514         2.653026         0.524624
 H        -0.043147         0.009883         2.854399
 H        -0.726781        -1.515001         2.064170
