19
Iteration:   556charge 0 multiplicity 1
 O         0.478239         0.023045         0.222144
 C        -0.780408         0.408503         0.813715
 C        -2.140974         0.299973         0.073410
 C        -2.581022         1.433189         0.955697
 C        -2.686172         0.976958         2.510198
 C        -1.610512         2.022635         2.760755
 C        -1.130299         1.956028         1.169626
 O        -2.133898        -0.410698         2.748631
 C        -0.880788        -0.573012         2.006188
 H         0.449521         0.405411        -0.660747
 H        -2.030295         0.656105        -1.078563
 H        -2.676623        -0.670295         0.001969
 H        -3.471574         2.122181         0.643984
 H        -3.596398         0.830833         3.064143
 H        -2.135886         2.989873         2.998624
 H        -0.869652         1.812381         3.506537
 H        -0.553687         2.875233         0.841948
 H        -0.002347        -0.628448         2.671934
 H        -0.794575        -1.601499         1.570318
