19
Iteration:  4543charge 0 multiplicity 1
 O         0.392837         0.193384         0.010308
 C        -0.732693         0.317202         0.847721
 C        -2.101123         0.054901         0.136473
 C        -2.693275         1.195949         0.950700
 C        -2.648265         1.052232         2.504759
 C        -1.647627         2.117983         2.635603
 C        -1.239214         1.810518         1.161697
 O        -2.047533        -0.222007         2.836993
 C        -0.801856        -0.524554         2.146629
 H         1.029278         0.887032         0.285677
 H        -2.040165         0.294167        -0.879821
 H        -2.775686        -0.828402         0.239658
 H        -3.576666         1.687889         0.627268
 H        -3.607600         1.086228         2.980141
 H        -1.898075         3.204284         2.620943
 H        -0.874960         1.873148         3.339438
 H        -0.736326         2.581853         0.548231
 H         0.184489        -0.167928         2.816122
 H        -0.759076        -1.566959         1.822404
