19
Iteration:    71charge 0 multiplicity 1
 O         0.485717         0.154301         0.158094
 C        -0.803756         0.317169         0.819450
 C        -2.064493         0.371938        -0.022225
 C        -2.573995         1.468591         0.944684
 C        -2.601913         0.901062         2.516797
 C        -1.515102         2.121604         2.814157
 C        -1.207561         1.891473         1.351551
 O        -2.192922        -0.474340         2.659979
 C        -0.973729        -0.642161         2.062356
 H         0.282160         0.127437        -0.779323
 H        -2.033398         0.693795        -1.032046
 H        -2.608252        -0.563013         0.081311
 H        -3.504769         2.165620         0.694718
 H        -3.575427         0.907115         3.083928
 H        -2.043135         3.086252         3.017168
 H        -0.666517         2.093552         3.522487
 H        -0.568267         2.543459         0.738717
 H        -0.098119        -0.525257         2.573956
 H        -0.877248        -1.683205         1.733484
