19
Iteration:  2039charge 0 multiplicity 1
 O         0.393451         0.016575         0.062884
 C        -0.715863         0.350341         0.816449
 C        -2.103252         0.222214         0.107077
 C        -2.623456         1.404436         0.969460
 C        -2.745338         0.977682         2.453534
 C        -1.538659         1.993274         2.747855
 C        -1.152322         1.823822         1.312224
 O        -2.206718        -0.339916         2.648956
 C        -0.733026        -0.396804         2.170873
 H         0.655472         0.526175        -0.714923
 H        -2.179800         0.449316        -0.966073
 H        -2.763802        -0.673830         0.262430
 H        -3.398681         2.057897         0.541207
 H        -3.685655         1.006489         3.072035
 H        -2.166261         2.883629         2.963530
 H        -0.786614         2.023082         3.515459
 H        -0.764310         2.667623         0.777965
 H        -0.018090         0.045107         2.926008
 H        -0.434480        -1.435393         1.862205
