19
Iteration:  3118
 O         0.450028         0.246904         0.156099
 C        -0.738451         0.409959         0.844647
 C        -2.156585         0.161041         0.133923
 C        -2.614948         1.343573         0.951861
 C        -2.635698         0.988658         2.554360
 C        -1.499604         2.074287         2.733838
 C        -1.187226         1.894551         1.171722
 O        -2.187532        -0.410599         2.624842
 C        -0.877032        -0.561402         2.039578
 H         0.881074        -0.557894         0.450872
 H        -2.054707         0.474624        -0.926840
 H        -2.689358        -0.824384         0.215556
 H        -3.463735         1.912183         0.693807
 H        -3.595125         1.077593         3.029027
 H        -1.983237         3.062153         2.698534
 H        -0.917706         1.913831         3.641144
 H        -0.637764         2.655782         0.599238
 H        -0.087339        -0.443054         2.859453
 H        -1.033580        -1.488683         1.640353
