19
Iteration:   726charge 0 multiplicity 1
 O         0.570815         0.312363         0.237416
 C        -0.789084         0.366646         0.797710
 C        -2.197991         0.216230         0.027517
 C        -2.559824         1.387389         0.976780
 C        -2.669164         0.987737         2.500281
 C        -1.403170         1.982952         2.813180
 C        -1.200061         1.840848         1.226744
 O        -2.230177        -0.336073         2.672707
 C        -0.986396        -0.635446         1.999786
 H         0.620359        -0.468848        -0.354616
 H        -2.117165         0.506943        -1.019641
 H        -2.690387        -0.797365         0.324695
 H        -3.253136         2.136849         0.640632
 H        -3.716909         1.207976         3.013651
 H        -1.783960         2.996573         3.034175
 H        -0.596381         1.457717         3.403465
 H        -0.869568         2.686637         0.590042
 H        -0.113442        -0.597304         2.756209
 H        -1.155583        -1.611109         1.509759
