19
Iteration:   252charge 0 multiplicity 1
 O         0.464004         0.117736         0.079483
 C        -0.766235         0.461114         0.803951
 C        -2.110669         0.231709         0.065912
 C        -2.536857         1.430747         0.916727
 C        -2.681208         0.928905         2.505900
 C        -1.556567         1.895886         2.872688
 C        -1.059119         1.876318         1.327836
 O        -2.277223        -0.373687         2.627799
 C        -0.870872        -0.422987         2.082649
 H         0.080863         0.058154        -0.837026
 H        -2.097281         0.277193        -1.082995
 H        -2.638597        -0.697161         0.479492
 H        -3.204479         2.085660         0.461096
 H        -3.595661         1.139415         3.087571
 H        -2.070494         2.876688         2.951842
 H        -0.965611         1.510019         3.778376
 H        -0.558352         2.686559         0.877813
 H        -0.141933        -0.317147         2.911266
 H        -0.713560        -1.457467         1.706342
