19
Iteration:  2291
 O         0.431551         0.143899         0.076415
 C        -0.758859         0.303223         0.853253
 C        -2.082515         0.155306         0.106320
 C        -2.573637         1.356500         0.923301
 C        -2.619177         1.056804         2.537992
 C        -1.515806         2.074724         2.711916
 C        -1.201527         1.824682         1.264586
 O        -2.233581        -0.341798         2.692081
 C        -0.891396        -0.522311         2.133037
 H         0.562507         0.940714        -0.455818
 H        -2.137750         0.152413        -0.993371
 H        -2.570883        -0.800906         0.349655
 H        -3.284935         2.026816         0.449324
 H        -3.658920         1.009835         2.969269
 H        -1.846556         3.020908         2.928965
 H        -0.782363         1.829392         3.462421
 H        -0.870229         2.686592         0.672585
 H        -0.109701        -0.257949         2.742938
 H        -0.652348        -1.547027         1.775424
