19
Iteration:  2235charge 0 multiplicity 1
 O         0.547912         0.072936         0.311927
 C        -0.805019         0.403553         0.765447
 C        -2.183765         0.205447        -0.139057
 C        -2.783604         1.333474         0.951455
 C        -2.553162         1.002169         2.638905
 C        -1.469991         2.063182         2.720550
 C        -1.186655         1.845629         1.120744
 O        -2.102766        -0.342751         2.791857
 C        -0.943776        -0.513013         2.095253
 H         0.586114         0.382174        -0.641170
 H        -2.123644         0.884285        -0.946343
 H        -2.528546        -0.806551        -0.273134
 H        -3.702521         1.865557         0.682177
 H        -3.547534         1.074182         3.118968
 H        -1.995221         2.924746         2.732762
 H        -0.785003         1.966390         3.503785
 H        -0.763087         2.678461         0.535704
 H        -0.194984        -0.388867         2.745870
 H        -0.847351        -1.468528         1.614286
