19
Iteration:   738charge 0 multiplicity 1
 O         0.541326         0.378069         0.225512
 C        -0.768909         0.376399         0.779868
 C        -2.158600         0.172574         0.105377
 C        -2.638747         1.399553         0.958795
 C        -2.660554         0.973160         2.495420
 C        -1.381387         1.953378         2.718630
 C        -1.085944         1.831058         1.274097
 O        -2.281886        -0.378651         2.671510
 C        -1.066599        -0.562921         1.944397
 H         0.746593        -0.560525        -0.072684
 H        -2.346235         0.294722        -0.950518
 H        -2.719121        -0.795011         0.346766
 H        -3.345648         2.072276         0.604235
 H        -3.619222         0.950440         3.110229
 H        -1.519519         3.012581         3.096624
 H        -0.544994         1.685679         3.470942
 H        -0.375973         2.564317         0.834317
 H        -0.207920        -0.417589         2.727387
 H        -0.990868        -1.618332         1.718520
