19
Iteration:   635
 O         0.399511         0.139604         0.165476
 C        -0.813665         0.390035         0.857720
 C        -2.156466         0.187243         0.091205
 C        -2.566629         1.399960         0.934003
 C        -2.619763         1.068105         2.474676
 C        -1.512112         1.987232         2.796187
 C        -1.084864         1.886446         1.272172
 O        -2.211979        -0.396742         2.577932
 C        -0.886590        -0.567688         2.080163
 H         0.727553         0.907728        -0.304840
 H        -1.971178         0.449105        -0.983391
 H        -2.587293        -0.808771         0.355771
 H        -3.425273         2.106966         0.607198
 H        -3.577953         1.021719         3.097571
 H        -1.895276         2.936251         3.097579
 H        -0.917538         1.577278         3.570763
 H        -0.612152         2.563565         0.576560
 H        -0.114309        -0.323711         2.825104
 H        -0.845759        -1.649303         1.746620
