19
Iteration:   281
 O         0.466534         0.149113         0.219056
 C        -0.823451         0.314683         0.865969
 C        -2.116283         0.296060         0.020057
 C        -2.635636         1.433140         0.959503
 C        -2.651952         0.986121         2.500246
 C        -1.484124         1.949552         2.793460
 C        -1.199649         1.835012         1.213915
 O        -2.173105        -0.338794         2.637747
 C        -0.873577        -0.595117         2.064926
 H         0.495429         0.829764        -0.496239
 H        -1.800211         0.848652        -0.884381
 H        -2.630455        -0.583209        -0.152189
 H        -3.418903         2.239149         0.534851
 H        -3.516551         1.067894         3.115694
 H        -1.863749         2.960808         3.100186
 H        -0.813704         1.531782         3.529669
 H        -0.718100         2.645275         0.537670
 H        -0.071991        -0.544423         2.776309
 H        -0.839039        -1.714095         1.776631
