19
Iteration:   416charge 0 multiplicity 1
 O         0.385426         0.120372         0.110796
 C        -0.796400         0.384235         0.837322
 C        -2.077554         0.261986        -0.007868
 C        -2.656220         1.378816         0.934629
 C        -2.677974         0.946151         2.422043
 C        -1.476462         1.992751         2.854340
 C        -1.193347         1.911681         1.298625
 O        -2.125065        -0.282439         2.665663
 C        -0.913251        -0.580286         2.084644
 H         1.204961         0.184945         0.596463
 H        -1.922937         0.470559        -1.034218
 H        -2.488856        -0.728719         0.008219
 H        -3.535126         2.083300         0.627863
 H        -3.627842         1.050026         3.057125
 H        -1.846928         2.969750         3.139078
 H        -0.704363         1.446966         3.472368
 H        -0.693467         2.742251         0.801876
 H        -0.049553        -0.675290         2.750959
 H        -0.910351        -1.604749         1.626361
