19
Iteration:  2657
 O         0.519855         0.170592         0.283790
 C        -0.756652         0.362517         0.761879
 C        -2.169305         0.146149        -0.080215
 C        -2.741567         1.299565         1.035148
 C        -2.547189         1.038708         2.581008
 C        -1.342772         1.992632         2.649715
 C        -1.240536         1.888906         1.116137
 O        -2.278962        -0.375861         2.729860
 C        -0.893877        -0.495893         2.095444
 H         0.732704         1.049672        -0.113531
 H        -2.186818         0.624719        -1.034531
 H        -2.717668        -0.740316         0.049396
 H        -3.656528         1.870309         0.752514
 H        -3.430589         1.125789         3.168641
 H        -1.767078         2.897644         3.040310
 H        -0.688317         1.555750         3.341538
 H        -1.003232         2.768008         0.463466
 H        -0.193549        -0.177921         2.836409
 H        -0.537757        -1.601138         1.930074
