19
Iteration:    95
 O         0.439959         0.073414         0.086519
 C        -0.734187         0.465522         0.834171
 C        -2.121314         0.280311         0.036647
 C        -2.625993         1.435923         0.979362
 C        -2.747152         0.998669         2.436389
 C        -1.620707         1.883457         2.853187
 C        -1.061994         1.823506         1.382204
 O        -2.139740        -0.328852         2.693525
 C        -0.849571        -0.510889         1.988610
 H         0.011353        -0.587338        -0.528194
 H        -1.785495         0.965450        -0.888046
 H        -2.579033        -0.634467        -0.209150
 H        -3.306200         2.278250         0.623541
 H        -3.657833         0.975401         3.002753
 H        -1.856251         3.040266         2.978683
 H        -1.223259         1.565565         3.854035
 H        -0.665013         2.812924         0.987453
 H         0.086147        -0.452228         2.574385
 H        -0.592514        -1.509858         1.559000
