19
Iteration:   568charge 0 multiplicity 1
 O         0.480214         0.016948         0.282054
 C        -0.744548         0.443316         0.797596
 C        -2.128471         0.296205        -0.027503
 C        -2.642149         1.420024         0.941064
 C        -2.637313         0.915447         2.472287
 C        -1.515348         2.032797         2.794502
 C        -1.242531         1.909877         1.234703
 O        -2.094226        -0.363932         2.759757
 C        -0.940860        -0.575757         1.987007
 H         0.825684         0.610505        -0.414432
 H        -2.205523         0.546321        -1.168754
 H        -2.622395        -0.650037         0.258668
 H        -3.442204         2.230061         0.652831
 H        -3.612383         1.085151         2.987798
 H        -1.805111         3.029470         3.109788
 H        -0.847711         1.660848         3.513451
 H        -0.950352         2.685012         0.497611
 H        -0.044091        -0.540454         2.626712
 H        -1.149417        -1.529195         1.440530
