19
Iteration:  3757
 O         0.447697         0.194605         0.243270
 C        -0.780673         0.378832         0.859182
 C        -2.190273         0.067546         0.077249
 C        -2.685590         1.254374         0.984930
 C        -2.562941         1.008508         2.521843
 C        -1.490150         2.138882         2.575668
 C        -1.259840         1.821901         1.077817
 O        -2.132762        -0.381375         2.773282
 C        -0.813656        -0.477753         2.097051
 H         0.694555         1.061329        -0.137744
 H        -2.029848         0.245350        -0.965485
 H        -2.781403        -0.880991         0.165963
 H        -3.528335         1.838877         0.513165
 H        -3.470079         1.178479         3.053267
 H        -2.021108         3.070715         2.971632
 H        -0.657844         2.005636         3.345160
 H        -0.960844         2.659830         0.466425
 H         0.021872        -0.027602         2.769886
 H        -0.804058        -1.592584         1.793380
