19
Iteration:   725
 O         0.567569         0.303103         0.237454
 C        -0.791083         0.372675         0.802880
 C        -2.196229         0.224501         0.025957
 C        -2.556562         1.386182         0.976787
 C        -2.664473         0.993707         2.501258
 C        -1.408431         1.983003         2.815508
 C        -1.203748         1.839535         1.225537
 O        -2.228819        -0.334867         2.671698
 C        -0.974007        -0.639826         2.007118
 H         0.639549        -0.444560        -0.370287
 H        -2.117441         0.507090        -1.048890
 H        -2.700543        -0.810025         0.277517
 H        -3.298558         2.149354         0.639757
 H        -3.720582         1.239695         3.012524
 H        -1.786796         2.959147         3.036991
 H        -0.635562         1.472309         3.405155
 H        -0.905578         2.665873         0.573886
 H        -0.102635        -0.626399         2.727582
 H        -1.150993        -1.626484         1.504083
