19
Iteration:  2201charge 0 multiplicity 1
 O         0.415979         0.088177         0.136549
 C        -0.821361         0.371083         0.880644
 C        -2.105947         0.137881         0.110163
 C        -2.624159         1.393325         0.922532
 C        -2.657538         1.006174         2.467136
 C        -1.546456         2.063294         2.751373
 C        -1.152952         1.896012         1.169598
 O        -2.118367        -0.342385         2.675770
 C        -0.827808        -0.529593         2.178529
 H         0.290139         0.685012        -0.640828
 H        -2.054510         0.381473        -0.928029
 H        -2.638681        -0.807658         0.114015
 H        -3.421833         2.108176         0.568155
 H        -3.701409         0.943456         2.892702
 H        -1.809449         3.067645         3.016093
 H        -0.814655         1.784407         3.506379
 H        -0.715861         2.742073         0.591752
 H        -0.109493        -0.481421         2.921706
 H        -0.845247        -1.532065         1.764786
