19
Iteration:  4246charge 0 multiplicity 1
 O         0.351547         0.137980         0.158250
 C        -0.746424         0.361609         0.905097
 C        -2.172678         0.034581         0.163251
 C        -2.669993         1.310182         0.895536
 C        -2.657955         0.975889         2.463730
 C        -1.579743         2.078348         2.617325
 C        -1.274340         1.957254         1.134305
 O        -2.012179        -0.331886         2.765159
 C        -0.681115        -0.422093         2.150411
 H         0.173035        -0.044080        -0.782884
 H        -2.101124         0.153401        -0.936668
 H        -2.611264        -1.011809         0.446556
 H        -3.466612         2.048997         0.613246
 H        -3.597797         0.962152         3.081246
 H        -2.030864         3.118460         2.581444
 H        -0.772181         1.987875         3.464809
 H        -0.868284         2.857701         0.515171
 H         0.001508        -0.172084         2.920431
 H        -0.661757        -1.461380         1.931225
