19
Iteration:  1895
 O         0.406901        -0.044042         0.043556
 C        -0.788397         0.340924         0.794372
 C        -2.058039         0.215637         0.040771
 C        -2.613595         1.368008         0.991332
 C        -2.702311         1.029188         2.481766
 C        -1.627618         1.999454         2.823606
 C        -1.198541         1.859971         1.338302
 O        -2.123881        -0.308080         2.666329
 C        -0.735787        -0.413237         2.124474
 H         0.659544         0.452106        -0.727275
 H        -1.949853         0.701606        -0.946391
 H        -2.700011        -0.691632        -0.124154
 H        -3.414628         2.012824         0.450944
 H        -3.639646         1.257747         3.108954
 H        -2.082437         3.019850         2.856345
 H        -1.006447         1.792965         3.731283
 H        -0.829161         2.724940         0.834734
 H        -0.107662        -0.016148         2.858419
 H        -0.661274        -1.544970         2.023679
