19
Iteration:  1348
 O         0.420379         0.127292         0.069967
 C        -0.765218         0.382061         0.813439
 C        -2.105934         0.136693         0.214685
 C        -2.558970         1.402772         0.962326
 C        -2.776677         1.022690         2.451872
 C        -1.503281         1.997256         2.721757
 C        -1.145685         1.801893         1.276574
 O        -2.193046        -0.382162         2.649611
 C        -0.815118        -0.422882         2.110950
 H         0.347922         0.638184        -0.770832
 H        -2.045585         0.097215        -0.977372
 H        -2.631382        -0.833630         0.660787
 H        -3.308858         2.162322         0.440891
 H        -3.826074         0.936964         2.862056
 H        -1.989521         3.004955         2.792711
 H        -0.902018         1.961136         3.700285
 H        -0.305383         2.651442         0.929678
 H        -0.170907         0.023136         2.856644
 H        -0.652220        -1.529266         1.930465
