19
Iteration:  2860charge 0 multiplicity 1
 O         0.517722        -0.070712         0.137954
 C        -0.743612         0.298942         0.775510
 C        -2.213936         0.292137         0.082177
 C        -2.662869         1.406374         1.009820
 C        -2.654824         0.961814         2.493879
 C        -1.590667         2.067312         2.783757
 C        -1.230836         1.895782         1.331635
 O        -2.121396        -0.374447         2.572498
 C        -0.764599        -0.402955         2.080998
 H         0.515947         0.402942        -0.728093
 H        -2.026264         0.620116        -1.002995
 H        -2.866559        -0.668384         0.102155
 H        -3.416336         2.116474         0.775177
 H        -3.573718         0.974846         3.096630
 H        -2.105721         2.981302         2.873628
 H        -0.978924         1.924790         3.658220
 H        -0.704793         2.763421         0.982497
 H        -0.088468         0.097758         2.891541
 H        -0.652119        -1.450666         1.847853
