19
Iteration:  1649
 O         0.387804         0.069512         0.164082
 C        -0.753657         0.361479         0.844023
 C        -2.110171         0.234809         0.003951
 C        -2.641412         1.367576         0.939307
 C        -2.620361         0.958277         2.400773
 C        -1.604205         2.018176         2.761431
 C        -1.161316         1.868983         1.254381
 O        -2.092064        -0.286871         2.778153
 C        -0.831950        -0.524096         2.100119
 H         0.318835         0.384626        -0.733220
 H        -1.967867         0.645587        -1.057728
 H        -2.664561        -0.703459         0.231284
 H        -3.346746         2.077066         0.488328
 H        -3.642475         0.930057         2.938513
 H        -2.246527         2.911480         2.983158
 H        -0.876813         1.970475         3.563241
 H        -0.765952         2.814132         0.701403
 H         0.095387        -0.405309         2.766173
 H        -0.851262        -1.687250         1.960483
