19
Iteration:  4404charge 0 multiplicity 1
 O         0.473947         0.204618         0.120837
 C        -0.811616         0.345341         0.821813
 C        -2.159168         0.080441         0.084384
 C        -2.686343         1.217295         0.943995
 C        -2.570200         0.965464         2.533244
 C        -1.634409         2.070080         2.622800
 C        -1.228181         1.806361         1.117852
 O        -2.029526        -0.256727         2.829948
 C        -0.809117        -0.317847         2.137110
 H         0.564149        -0.777542        -0.029376
 H        -2.092685         0.378129        -1.005128
 H        -2.774115        -0.782655         0.299826
 H        -3.495224         1.875336         0.650211
 H        -3.514016         1.033949         3.088663
 H        -2.188676         3.044035         2.792493
 H        -0.824564         2.000994         3.315486
 H        -1.032445         2.448701         0.313266
 H        -0.007948        -0.037349         2.780716
 H        -0.845735        -1.462320         2.009611
