19
Iteration:  3547
 O         0.433607         0.050115         0.128970
 C        -0.720365         0.348989         0.848348
 C        -2.075166         0.107705         0.141410
 C        -2.720879         1.264228         0.939646
 C        -2.646788         1.028445         2.494648
 C        -1.569958         2.127158         2.701082
 C        -1.231909         1.911517         1.218791
 O        -2.156996        -0.336144         2.671858
 C        -0.780382        -0.438177         2.104908
 H         0.582493         0.844928        -0.437453
 H        -2.063824         0.164653        -0.950431
 H        -2.471946        -0.882446         0.462682
 H        -3.573103         1.905698         0.589163
 H        -3.586060         1.199486         3.024101
 H        -1.911548         3.179005         2.941540
 H        -0.758038         1.999858         3.484131
 H        -0.793338         2.574774         0.474606
 H        -0.080402        -0.116137         2.951611
 H        -0.721931        -1.612889         1.820268
