19
Iteration:  2844
 O         0.401411         0.023413         0.105152
 C        -0.767063         0.408781         0.812957
 C        -2.101537         0.256182        -0.018243
 C        -2.601614         1.334339         0.981673
 C        -2.674931         0.958191         2.521733
 C        -1.610266         2.044211         2.834191
 C        -1.137174         1.876542         1.236529
 O        -2.122659        -0.321305         2.726663
 C        -0.859506        -0.520149         2.095390
 H         0.627508         0.678555        -0.571921
 H        -2.029633         0.812693        -0.953856
 H        -2.532263        -0.721679         0.032995
 H        -3.405814         2.068207         0.601338
 H        -3.661285         0.946709         3.034913
 H        -2.067897         3.098892         2.900164
 H        -0.822608         1.779705         3.600389
 H        -0.754945         2.648477         0.447653
 H        -0.000706        -0.300249         2.691756
 H        -0.684904        -1.664148         1.901433
