19
Iteration:  3632charge 0 multiplicity 1
 O         0.515022         0.123075         0.115217
 C        -0.751801         0.405547         0.762099
 C        -2.099692         0.072445         0.122420
 C        -2.716361         1.254475         0.995333
 C        -2.682450         0.989762         2.559672
 C        -1.492979         2.060103         2.640138
 C        -1.280020         1.906996         1.114518
 O        -2.132464        -0.325081         2.770803
 C        -0.909672        -0.428346         2.085563
 H         1.216044         0.439114         0.715022
 H        -2.328769         0.345758        -0.975240
 H        -2.442389        -0.959735         0.012597
 H        -3.525765         1.939416         0.676566
 H        -3.654281         1.118225         3.186181
 H        -1.824503         3.131198         2.807966
 H        -0.549716         1.858746         3.219807
 H        -0.835110         2.737074         0.444623
 H        -0.178868        -0.208861         2.998703
 H        -0.701484        -1.418597         1.936583
