19
Iteration:  3706charge 0 multiplicity 1
 O         0.516211         0.208451         0.064296
 C        -0.799056         0.396694         0.781937
 C        -2.084658         0.094972         0.050600
 C        -2.678086         1.215428         0.991874
 C        -2.703395         0.966056         2.539646
 C        -1.544730         2.129231         2.675098
 C        -1.202919         1.825087         1.222105
 O        -2.115442        -0.290391         2.800371
 C        -0.862848        -0.407707         2.166829
 H         0.470260        -0.690611        -0.346333
 H        -2.194906         0.372176        -1.077348
 H        -2.280577        -0.964130        -0.098142
 H        -3.485855         1.713609         0.441316
 H        -3.724486         1.039372         3.089559
 H        -1.957138         3.122351         2.820800
 H        -0.813707         1.928516         3.436197
 H        -0.870832         2.651277         0.511581
 H         0.004285        -0.056586         2.705321
 H        -0.943544        -1.548286         2.111093
