19
Iteration:  3763charge 0 multiplicity 1
 O         0.479365         0.200308         0.169425
 C        -0.830943         0.349859         0.822394
 C        -2.154383         0.030240         0.079669
 C        -2.719480         1.245542         1.000439
 C        -2.597051         1.003594         2.522069
 C        -1.492003         2.110634         2.583412
 C        -1.219749         1.836829         1.153346
 O        -2.127965        -0.338777         2.769517
 C        -0.852396        -0.452573         2.124189
 H         0.846742         1.073000        -0.016542
 H        -1.975293         0.434202        -0.967096
 H        -2.459313        -1.024661         0.160876
 H        -3.471054         1.937803         0.674279
 H        -3.532857         1.203227         3.106925
 H        -1.983658         3.019451         2.850550
 H        -0.726638         2.063611         3.333162
 H        -0.965939         2.547297         0.316390
 H         0.021918        -0.159366         2.712174
 H        -0.882207        -1.489962         1.943215
