19
Iteration:  4634
 O         0.452071         0.166809         0.045450
 C        -0.753290         0.352703         0.744134
 C        -2.104062         0.061614         0.124523
 C        -2.639973         1.216554         0.973244
 C        -2.711678         0.948594         2.439614
 C        -1.658855         2.091553         2.724335
 C        -1.177048         1.867714         1.158224
 O        -2.118074        -0.242628         2.877330
 C        -0.721627        -0.399742         2.148279
 H         0.136495        -0.370609        -0.727705
 H        -2.069359         0.310999        -0.942100
 H        -2.520294        -0.887828         0.180187
 H        -3.610620         1.815136         0.807361
 H        -3.707204         1.189978         2.951197
 H        -2.154862         3.113526         2.776873
 H        -0.868672         2.115544         3.461607
 H        -0.699433         2.623886         0.564638
 H         0.197291        -0.006627         2.843422
 H        -0.740685        -1.470999         2.135249
