19
Iteration:  4048
 O         0.468303         0.194174         0.184271
 C        -0.776506         0.385517         0.783244
 C        -2.146336         0.098479        -0.021538
 C        -2.756826         1.187109         0.963137
 C        -2.630036         0.970304         2.595002
 C        -1.478471         2.092531         2.643575
 C        -1.265884         1.833218         1.031783
 O        -2.094732        -0.290370         2.867906
 C        -0.847540        -0.417749         2.175186
 H         0.646741        -0.579347        -0.359932
 H        -2.003171         0.590428        -0.984244
 H        -2.557574        -0.910736        -0.052347
 H        -3.649154         1.857494         0.857133
 H        -3.543193         1.183893         3.176668
 H        -1.919283         3.088852         2.758502
 H        -0.681696         2.007035         3.411863
 H        -1.003195         2.675138         0.288017
 H         0.116752         0.145919         2.639765
 H        -0.462302        -1.426393         1.952998
