19
Iteration:   912charge 0 multiplicity 1
 O         0.414721         0.058516         0.194775
 C        -0.780216         0.355992         0.825084
 C        -2.092078         0.308041        -0.020134
 C        -2.603669         1.434618         0.903756
 C        -2.594000         0.934202         2.546929
 C        -1.614908         2.073428         2.842189
 C        -1.139398         1.928486         1.279507
 O        -2.134848        -0.397919         2.705874
 C        -0.874441        -0.572554         2.000715
 H         0.362751         0.225033        -0.773947
 H        -1.974604         0.696353        -1.009521
 H        -2.733819        -0.632573        -0.130448
 H        -3.430252         2.117354         0.633064
 H        -3.563659         0.906228         3.083851
 H        -2.192597         2.929275         2.944884
 H        -0.940144         1.896872         3.632961
 H        -0.464376         2.724720         0.923925
 H        -0.033859        -0.488479         2.635431
 H        -1.015859        -1.609387         1.678995
