19
Iteration:  3950charge 0 multiplicity 1
 O         0.334543         0.116098         0.116752
 C        -0.757981         0.368899         0.840022
 C        -2.135369         0.157549         0.061453
 C        -2.737269         1.294074         0.935403
 C        -2.655884         0.908996         2.458740
 C        -1.561931         2.068028         2.626966
 C        -1.275710         1.937847         1.125331
 O        -2.005577        -0.343094         2.756273
 C        -0.720387        -0.331854         2.278950
 H         0.645446        -0.782843         0.297744
 H        -1.735669         0.362967        -0.932827
 H        -2.774377        -0.708819         0.181198
 H        -3.638001         1.657543         0.402895
 H        -3.565272         1.023537         3.038877
 H        -1.869017         2.979586         3.038283
 H        -0.857591         1.822514         3.401329
 H        -0.739301         2.661287         0.407067
 H        -0.017311         0.143589         2.873923
 H        -0.476964        -1.479061         1.959068
