19
Iteration:  2250charge 0 multiplicity 1
 O         0.519622         0.110539         0.371967
 C        -0.836836         0.360979         0.779981
 C        -2.200866         0.264453        -0.076123
 C        -2.628563         1.295939         0.983911
 C        -2.621289         0.959551         2.559164
 C        -1.493915         2.089102         2.619999
 C        -1.270860         1.849285         1.175469
 O        -2.110712        -0.336934         2.816207
 C        -0.884678        -0.550523         1.977640
 H         0.671680         0.432430        -0.528551
 H        -2.133057         0.621444        -1.167882
 H        -2.772990        -0.691865        -0.228144
 H        -3.357108         2.062420         0.748716
 H        -3.424615         1.144684         3.274490
 H        -1.832141         3.116490         2.930006
 H        -0.602696         2.012767         3.272741
 H        -0.838720         2.606056         0.510227
 H         0.049626        -0.380466         2.632451
 H        -0.955095        -1.647474         1.877206
