19
Iteration:  1829charge 0 multiplicity 1
 O         0.562190         0.261955         0.310706
 C        -0.778487         0.349774         0.747054
 C        -2.132823         0.239916         0.102176
 C        -2.728876         1.279281         1.031384
 C        -2.585661         1.093275         2.511079
 C        -1.376588         2.020800         2.651690
 C        -1.245699         1.836907         1.136700
 O        -2.247751        -0.404011         2.757631
 C        -0.972589        -0.573928         1.991588
 H         0.679745         0.069904        -0.660829
 H        -2.184888         0.578235        -0.956648
 H        -2.481711        -0.823399         0.126181
 H        -3.711736         1.824306         0.769137
 H        -3.465899         1.265731         3.185775
 H        -1.700584         3.100206         2.842993
 H        -0.510468         1.808090         3.346610
 H        -0.834908         2.598099         0.458509
 H         0.020512        -0.560650         2.731200
 H        -0.891218        -1.651559         1.573700
