19
Iteration:  4669charge 0 multiplicity 1
 O         0.312477         0.290005         0.096974
 C        -0.781575         0.302617         0.916270
 C        -2.168727         0.026458         0.155350
 C        -2.640210         1.294153         0.854827
 C        -2.611296         1.010512         2.450640
 C        -1.617454         2.175855         2.634922
 C        -1.210261         1.836814         1.190761
 O        -2.085876        -0.289015         2.762852
 C        -0.663275        -0.526490         2.182855
 H         0.458354        -0.502884        -0.475682
 H        -1.801387         0.343836        -0.867789
 H        -2.505185        -0.976279         0.251828
 H        -3.669193         1.745309         0.592849
 H        -3.633578         1.058378         2.958543
 H        -2.158403         3.137583         2.617065
 H        -0.935452         2.023238         3.528150
 H        -0.550221         2.482473         0.557734
 H         0.239503        -0.185782         2.895541
 H        -0.655686        -1.684857         2.118651
