19
Iteration:    94charge 0 multiplicity 1
 O         0.439113         0.075185         0.091999
 C        -0.728312         0.466213         0.830103
 C        -2.125000         0.288975         0.035358
 C        -2.614165         1.428010         0.988815
 C        -2.735963         0.990075         2.437776
 C        -1.624428         1.887995         2.846700
 C        -1.056890         1.836495         1.372730
 O        -2.145820        -0.329289         2.699969
 C        -0.849818        -0.522985         1.985691
 H         0.018316        -0.566084        -0.559756
 H        -1.802399         0.926953        -0.845594
 H        -2.592706        -0.626357        -0.197748
 H        -3.328341         2.297465         0.628559
 H        -3.684348         0.985071         2.999034
 H        -1.903040         3.011606         2.954793
 H        -1.230953         1.569634         3.839230
 H        -0.671514         2.819602         0.977236
 H         0.024055        -0.452279         2.571415
 H        -0.601126        -1.512305         1.557645
