19
Iteration:  3192
 O         0.540123         0.105807         0.273029
 C        -0.767316         0.383415         0.801776
 C        -2.128789         0.272524         0.052154
 C        -2.700311         1.346813         0.939467
 C        -2.628523         1.010362         2.550217
 C        -1.518518         2.024019         2.707687
 C        -1.226539         1.872080         1.199640
 O        -2.173363        -0.426001         2.651083
 C        -0.869306        -0.457963         2.097163
 H         0.449458        -0.259908        -0.634606
 H        -2.011603         0.700148        -1.014962
 H        -2.739643        -0.689997         0.119872
 H        -3.561399         1.867002         0.489821
 H        -3.458219         1.137124         3.242129
 H        -1.861387         3.056554         2.950689
 H        -0.723851         1.746593         3.388028
 H        -0.909065         2.724763         0.571233
 H        -0.194259        -0.172108         2.877551
 H        -0.680306        -1.519018         1.613817
