19
Iteration:  1527
 O         0.487512         0.090873         0.259556
 C        -0.829926         0.362297         0.778070
 C        -2.074301         0.233847        -0.007539
 C        -2.662275         1.287208         0.951556
 C        -2.558050         0.962492         2.528924
 C        -1.550970         2.070379         2.688865
 C        -1.233247         1.933494         1.184134
 O        -2.113070        -0.328098         2.828514
 C        -0.948091        -0.571498         2.020464
 H         0.576846         0.649541        -0.510390
 H        -1.970744         0.813340        -0.959425
 H        -2.626756        -0.752313        -0.124119
 H        -3.404569         1.989220         0.719460
 H        -3.470251         1.074644         3.137019
 H        -2.116129         2.961355         2.907323
 H        -0.691307         1.939221         3.310205
 H        -0.744859         2.725631         0.522270
 H        -0.176009        -0.402379         2.644347
 H        -0.979211        -1.662262         1.780767
