19
Iteration:   801charge 0 multiplicity 1
 O         0.419619         0.038978         0.084419
 C        -0.722003         0.452996         0.762759
 C        -2.110932         0.334317        -0.055316
 C        -2.522517         1.406764         0.996748
 C        -2.642961         0.891539         2.520598
 C        -1.630534         1.954363         2.841766
 C        -1.119730         1.897272         1.320341
 O        -2.128932        -0.340920         2.700129
 C        -0.961227        -0.495899         2.032900
 H         0.678642        -0.875886         0.328998
 H        -1.953323         1.056393        -0.850860
 H        -2.609193        -0.726760        -0.045805
 H        -3.245607         2.311586         0.744582
 H        -3.709757         1.024478         3.027480
 H        -2.191301         2.843944         2.912133
 H        -1.057721         1.815993         3.736120
 H        -0.897336         2.798005         0.772633
 H        -0.111918        -0.247551         2.621533
 H        -0.927190        -1.580851         1.717818
