19
Iteration:  4223charge 0 multiplicity 1
 O         0.373352         0.220632        -0.032657
 C        -0.737057         0.267917         0.857101
 C        -2.058887         0.081679         0.159187
 C        -2.648952         1.236843         0.916418
 C        -2.667941         0.972795         2.493878
 C        -1.606349         2.145469         2.698955
 C        -1.217683         1.846677         1.144355
 O        -2.104420        -0.282757         2.852500
 C        -0.736802        -0.426714         2.211113
 H         0.109856         0.047748        -0.938338
 H        -2.038759         0.318543        -0.951381
 H        -2.576393        -0.924915         0.329406
 H        -3.611719         1.630228         0.493140
 H        -3.691756         1.161079         2.890097
 H        -2.230571         3.112965         2.752979
 H        -0.747876         2.151920         3.513899
 H        -0.515050         2.510293         0.485101
 H        -0.079758        -0.150554         2.984920
 H        -0.729071        -1.470982         2.115180
