19
Iteration:   826
 O         0.448066         0.162654         0.133878
 C        -0.746898         0.383134         0.813685
 C        -2.108819         0.304521         0.030465
 C        -2.715865         1.471014         0.922687
 C        -2.645423         1.023663         2.475093
 C        -1.544870         2.007607         2.826696
 C        -1.177906         1.854368         1.319258
 O        -2.129042        -0.382101         2.681004
 C        -0.887371        -0.679440         1.976086
 H         0.779924        -0.748450         0.354831
 H        -1.921011         0.860173        -0.839899
 H        -2.728575        -0.622232         0.090335
 H        -3.391805         2.149958         0.596436
 H        -3.587816         1.109307         3.007849
 H        -1.883660         3.067522         2.969898
 H        -0.977738         1.744575         3.766512
 H        -0.518593         2.661988         0.882173
 H         0.009760        -0.483226         2.638488
 H        -0.857812        -1.718311         1.681729
