19
Iteration:   679charge 0 multiplicity 1
 O         0.430942         0.009287         0.141958
 C        -0.733788         0.345753         0.804756
 C        -2.064615         0.394572        -0.100207
 C        -2.576617         1.393230         0.994354
 C        -2.592149         0.934349         2.482408
 C        -1.623493         2.064520         2.840629
 C        -1.170428         1.898995         1.266268
 O        -2.207578        -0.436099         2.745173
 C        -0.846210        -0.508437         2.096592
 H         0.093467        -0.103589        -0.748167
 H        -1.925550         1.037026        -1.056789
 H        -2.726322        -0.536344        -0.240326
 H        -3.293343         2.313842         0.839749
 H        -3.642515         1.014329         3.043643
 H        -2.181828         2.931107         2.888814
 H        -0.974493         1.807508         3.622794
 H        -0.715258         2.714927         0.719605
 H        -0.164580        -0.142315         2.851228
 H        -0.648264        -1.607743         1.832751
