19
Iteration:  3396charge 0 multiplicity 1
 O         0.449357         0.063825         0.233472
 C        -0.736352         0.410486         0.838283
 C        -2.146838         0.183785         0.096264
 C        -2.661205         1.381018         0.888497
 C        -2.639541         0.948267         2.446578
 C        -1.502372         2.148431         2.729284
 C        -1.234983         1.880214         1.227733
 O        -2.093713        -0.383345         2.687953
 C        -0.860176        -0.526017         2.095936
 H         0.383550         0.534947        -0.639737
 H        -2.155700         0.346286        -1.012466
 H        -2.670221        -0.876173         0.225287
 H        -3.593066         1.928945         0.603337
 H        -3.494496         1.110357         3.072963
 H        -2.149264         3.025588         2.868477
 H        -0.846788         1.870775         3.559095
 H        -0.845311         2.731544         0.686395
 H        -0.084763        -0.276676         2.783983
 H        -0.746946        -1.516473         1.803097
