19
Iteration:  1468
 O         0.395068         0.163025         0.091175
 C        -0.769912         0.359424         0.832562
 C        -2.140618         0.192110         0.091478
 C        -2.614608         1.302346         0.926975
 C        -2.647622         0.976100         2.427000
 C        -1.526174         2.065349         2.748193
 C        -1.138888         1.834541         1.261366
 O        -2.213531        -0.412165         2.690943
 C        -0.813816        -0.472166         2.221032
 H         0.438115         0.463111        -0.846676
 H        -1.993780         0.339048        -0.992869
 H        -2.767785        -0.729550         0.141279
 H        -3.147663         2.275566         0.554231
 H        -3.692585         1.058678         2.753757
 H        -1.766580         3.101767         2.965578
 H        -0.864413         2.032413         3.646954
 H        -0.593712         2.619620         0.648046
 H        -0.148843         0.050013         2.961047
 H        -0.449155        -1.441113         2.113572
