19
Iteration:   603
 O         0.499719         0.242612         0.252311
 C        -0.810057         0.352760         0.829308
 C        -2.137793         0.310275        -0.035570
 C        -2.649480         1.364194         1.010695
 C        -2.594615         0.998968         2.560504
 C        -1.378707         1.993053         2.657338
 C        -1.171409         1.769932         1.166781
 O        -2.277242        -0.418616         2.714411
 C        -0.972301        -0.594439         2.087889
 H         0.872870         1.110042         0.024860
 H        -1.997763         0.762979        -1.039439
 H        -2.630330        -0.677813        -0.278799
 H        -3.393490         2.193711         0.752786
 H        -3.529538         1.177471         3.241889
 H        -1.746872         2.972109         2.786861
 H        -0.584755         1.679238         3.320309
 H        -0.878935         2.342198         0.328251
 H        -0.127793        -0.505846         2.815943
 H        -0.872233        -1.695182         1.822477
