19
Iteration:  2278
 O         0.434814         0.136765         0.205120
 C        -0.783199         0.398193         0.870312
 C        -2.147299         0.126167         0.087544
 C        -2.663075         1.331955         0.923270
 C        -2.657765         1.000508         2.507239
 C        -1.507177         2.034852         2.673975
 C        -1.168603         1.890053         1.187418
 O        -2.152357        -0.291752         2.704311
 C        -0.838179        -0.584755         2.063898
 H         0.568661         0.885909        -0.420702
 H        -1.962257         0.468443        -0.889334
 H        -2.678496        -0.841579         0.106330
 H        -3.483737         2.007811         0.597880
 H        -3.459668         1.235205         3.239380
 H        -1.894009         3.021065         2.910423
 H        -0.681752         1.843199         3.405758
 H        -0.517467         2.610313         0.664461
 H        -0.067882        -0.622380         2.843261
 H        -1.057369        -1.609259         1.789644
