19
Iteration:  4720
 O         0.487386         0.242981         0.252839
 C        -0.813165         0.405181         0.778358
 C        -2.151527         0.113509         0.025177
 C        -2.767543         1.151128         0.987902
 C        -2.609758         0.999470         2.477239
 C        -1.424544         2.075430         2.574081
 C        -1.393117         1.859668         1.084767
 O        -2.038278        -0.298064         2.818886
 C        -0.858877        -0.446521         2.125197
 H         0.967776        -0.503661         0.667235
 H        -2.083308         0.526696        -0.978370
 H        -2.579541        -0.924932         0.098497
 H        -3.687124         1.730214         0.696191
 H        -3.468134         1.184819         3.195802
 H        -1.738052         3.057803         3.022232
 H        -0.471047         1.836856         3.027172
 H        -1.084220         2.550203         0.318013
 H         0.014064        -0.111575         2.663343
 H        -0.732142        -1.467505         2.070157
