19
Iteration:  2737
 O         0.384326         0.032837         0.048893
 C        -0.785828         0.354861         0.827958
 C        -2.032038         0.248477         0.028247
 C        -2.652688         1.388476         0.946444
 C        -2.666417         0.982532         2.478002
 C        -1.627675         2.055448         2.776095
 C        -1.135270         1.814589         1.310278
 O        -2.126409        -0.336788         2.720919
 C        -0.799733        -0.451635         2.191673
 H         0.216502         0.333303        -0.870983
 H        -2.077285         0.671171        -1.016577
 H        -2.310426        -0.773203        -0.353352
 H        -3.389554         2.091053         0.482299
 H        -3.624070         0.889264         3.047199
 H        -2.026959         3.000768         3.014213
 H        -0.924549         1.854789         3.574908
 H        -0.711761         2.664213         0.818898
 H         0.042198        -0.180426         2.904173
 H        -0.820789        -1.520517         1.942595
