19
Iteration:  2289
 O         0.435108         0.141552         0.094328
 C        -0.779533         0.316622         0.852846
 C        -2.089153         0.142914         0.094491
 C        -2.580766         1.335468         0.918644
 C        -2.623615         1.049088         2.551060
 C        -1.524227         2.066957         2.692132
 C        -1.195255         1.844256         1.269268
 O        -2.226205        -0.327012         2.688063
 C        -0.874572        -0.538590         2.125209
 H         0.553330         0.956106        -0.453572
 H        -2.075283         0.235208        -0.964940
 H        -2.609918        -0.773588         0.377507
 H        -3.270045         2.075618         0.473194
 H        -3.641072         1.098188         3.025058
 H        -1.893464         3.061874         2.910480
 H        -0.704512         1.763713         3.399135
 H        -0.831612         2.705930         0.694940
 H        -0.038275        -0.321214         2.821988
 H        -0.725430        -1.554632         1.715884
