19
Iteration:  2855charge 0 multiplicity 1
 O         0.508953        -0.057669         0.116271
 C        -0.781409         0.330450         0.794206
 C        -2.198308         0.290333         0.039400
 C        -2.618312         1.384105         0.993780
 C        -2.662523         0.973278         2.540433
 C        -1.612609         2.047417         2.795096
 C        -1.167397         1.875537         1.313605
 O        -2.115325        -0.346334         2.597398
 C        -0.775629        -0.426836         2.113877
 H         0.497731         0.514954        -0.659417
 H        -2.104188         0.507974        -1.018232
 H        -2.790227        -0.590907        -0.087911
 H        -3.564265         1.987256         0.732587
 H        -3.675096         0.916221         2.989691
 H        -2.073167         3.099487         2.980020
 H        -0.932450         1.972457         3.707997
 H        -0.947082         2.882885         0.773942
 H        -0.087213        -0.088549         2.836928
 H        -0.716266        -1.554796         1.801234
