19
Iteration:  1967
 O         0.505162         0.271639         0.304778
 C        -0.784606         0.333142         0.845173
 C        -2.157102         0.174216        -0.006788
 C        -2.683352         1.246602         0.961408
 C        -2.642027         1.044712         2.540457
 C        -1.385979         2.032925         2.717679
 C        -1.263982         1.800603         1.183168
 O        -2.173859        -0.249770         2.784666
 C        -0.921709        -0.654325         1.936149
 H         0.565668         0.610537        -0.586353
 H        -2.089893         0.623730        -1.006435
 H        -2.501783        -0.819184        -0.139487
 H        -3.317202         2.013302         0.615412
 H        -3.563605         1.167830         3.030806
 H        -1.511347         3.105865         2.835966
 H        -0.619223         1.672546         3.439033
 H        -1.043451         2.698831         0.557839
 H         0.052452        -0.599403         2.657136
 H        -1.105585        -1.671844         1.611231
