19
Iteration:  3759charge 0 multiplicity 1
 O         0.458530         0.196550         0.217954
 C        -0.797130         0.370446         0.850132
 C        -2.181574         0.049387         0.078234
 C        -2.698662         1.252536         0.997689
 C        -2.568829         1.008319         2.519020
 C        -1.491084         2.130293         2.571317
 C        -1.242094         1.822890         1.106839
 O        -2.132305        -0.371397         2.772268
 C        -0.820885        -0.460135         2.109346
 H         0.756401         1.079960        -0.099637
 H        -1.981906         0.317106        -1.009198
 H        -2.676126        -0.931340         0.162613
 H        -3.512623         1.882264         0.546291
 H        -3.528050         1.206419         3.078278
 H        -2.008233         3.045421         2.973222
 H        -0.691777         2.041039         3.351079
 H        -0.976779         2.647037         0.398009
 H        -0.016773        -0.062537         2.702943
 H        -0.876244        -1.634499         1.827224
