19
Iteration:  4305
 O         0.367835         0.175246         0.162777
 C        -0.787651         0.351599         0.876953
 C        -2.114062         0.112095         0.078754
 C        -2.761480         1.189785         0.923554
 C        -2.569136         0.961501         2.488304
 C        -1.502633         2.124224         2.535823
 C        -1.286032         1.863057         1.080482
 O        -2.004502        -0.290063         2.909150
 C        -0.894689        -0.506920         2.127230
 H         0.702324         1.110852         0.170410
 H        -1.940143         0.408851        -0.960154
 H        -2.452812        -0.919355         0.063526
 H        -3.601073         1.817935         0.669448
 H        -3.416717         1.360207         3.029510
 H        -1.839914         3.123708         2.728651
 H        -0.766862         1.972505         3.258205
 H        -0.816157         2.552977         0.434045
 H        -0.019073        -0.271368         2.830380
 H        -0.575298        -1.584172         1.857381
