19
Iteration:   688charge 0 multiplicity 1
 O         0.383994         0.059588         0.183961
 C        -0.795470         0.379014         0.832724
 C        -2.041910         0.417097        -0.081176
 C        -2.550486         1.393621         0.983026
 C        -2.665695         0.881958         2.512478
 C        -1.525067         2.049681         2.760647
 C        -1.164675         1.841143         1.299402
 O        -2.188843        -0.436291         2.734916
 C        -0.866165        -0.500336         2.082916
 H         0.167249        -0.222056        -0.704433
 H        -1.739593         1.050054        -1.000909
 H        -2.580637        -0.500523        -0.357390
 H        -3.359793         2.175703         0.758409
 H        -3.642464         0.866353         2.952962
 H        -2.034432         3.002544         2.846048
 H        -0.850783         2.182501         3.549201
 H        -0.804700         2.588495         0.583810
 H        -0.087528        -0.219010         2.755857
 H        -0.772339        -1.566175         1.803677
