19
Iteration:   731charge 0 multiplicity 1
 O         0.574787         0.357781         0.233398
 C        -0.769473         0.341476         0.773259
 C        -2.192010         0.168770         0.063487
 C        -2.595611         1.380148         0.978787
 C        -2.686804         0.967163         2.493793
 C        -1.379886         1.976007         2.780327
 C        -1.151551         1.850397         1.243782
 O        -2.246346        -0.351500         2.680841
 C        -1.047526        -0.589989         1.963436
 H         0.541235        -0.522107        -0.192198
 H        -2.179492         0.482402        -0.986444
 H        -2.638706        -0.667948         0.460465
 H        -3.228276         2.215879         0.568730
 H        -3.567517         0.944484         3.008555
 H        -1.639260         3.054030         3.062375
 H        -0.533661         1.568007         3.367295
 H        -0.604396         2.692713         0.750680
 H        -0.312247        -0.476527         2.740306
 H        -1.115639        -1.624697         1.591016
