19
Iteration:  2765charge 0 multiplicity 1
 O         0.461981         0.065024         0.275418
 C        -0.820517         0.418845         0.824639
 C        -2.142126         0.214485         0.069971
 C        -2.670245         1.399566         0.987269
 C        -2.546795         0.977108         2.499930
 C        -1.471725         1.996863         2.665440
 C        -1.249863         1.941605         1.180217
 O        -2.191279        -0.438093         2.635037
 C        -0.844210        -0.484726         2.110432
 H         0.608039         0.586899        -0.529545
 H        -2.177927         0.469468        -0.985695
 H        -2.527661        -0.797535         0.198578
 H        -3.518852         2.057459         0.730732
 H        -3.441107         1.114866         3.090063
 H        -1.914833         3.003993         3.081679
 H        -0.551482         1.716780         3.263605
 H        -0.961359         2.838804         0.551732
 H        -0.102460        -0.144931         2.799862
 H        -0.695846        -1.564257         1.740948
