19
Iteration:  2439charge 0 multiplicity 1
 O         0.446403        -0.013618         0.108344
 C        -0.712170         0.360725         0.773800
 C        -2.165916         0.205698         0.139442
 C        -2.671300         1.335606         0.974364
 C        -2.670591         0.992536         2.496199
 C        -1.492174         2.072737         2.809452
 C        -1.182341         1.895294         1.241926
 O        -2.174158        -0.347755         2.560577
 C        -0.841696        -0.443060         2.157346
 H         0.927432         0.726877        -0.317155
 H        -2.248807         0.500367        -0.947048
 H        -2.470715        -0.862017         0.280806
 H        -3.478505         1.939512         0.531254
 H        -3.533320         1.186340         3.020105
 H        -1.957656         3.071805         3.059107
 H        -0.849599         1.739397         3.637195
 H        -0.939708         2.740542         0.609796
 H        -0.152770         0.058077         2.797492
 H        -0.715095        -1.478224         2.070174
