19
Iteration:  1359charge 0 multiplicity 1
 O         0.435611         0.121887         0.050044
 C        -0.732455         0.359202         0.869772
 C        -2.126039         0.104857         0.107581
 C        -2.638336         1.335577         0.928087
 C        -2.702101         1.090504         2.448772
 C        -1.533029         1.980073         2.790861
 C        -1.139405         1.816704         1.291806
 O        -2.207163        -0.351096         2.658528
 C        -0.812006        -0.434504         2.157913
 H         0.421569         0.860267        -0.553438
 H        -2.305075         0.422182        -1.016934
 H        -2.612455        -0.962308         0.274340
 H        -3.374782         2.084878         0.390450
 H        -3.676825         1.141386         3.021603
 H        -1.917580         3.030246         2.834576
 H        -0.708284         1.818292         3.572856
 H        -0.568079         2.753541         0.697026
 H        -0.093773        -0.137384         2.913166
 H        -0.517633        -1.494862         1.951708
