19
Iteration:   191charge 0 multiplicity 1
 O         0.512704         0.264825         0.256339
 C        -0.821310         0.408333         0.739970
 C        -2.102017         0.372919        -0.058316
 C        -2.620577         1.400212         0.996681
 C        -2.683660         0.912931         2.522471
 C        -1.464700         1.884347         2.687126
 C        -1.167859         1.813390         1.272385
 O        -2.174169        -0.352664         2.837474
 C        -1.005856        -0.567010         1.929230
 H         0.840370        -0.664039         0.055620
 H        -2.020134         0.738764        -1.043747
 H        -2.602250        -0.625562         0.086473
 H        -3.447116         2.155809         0.593786
 H        -3.616281         1.085664         3.146668
 H        -1.637747         2.899386         3.005397
 H        -0.722421         1.521461         3.378935
 H        -0.661089         2.597147         0.638148
 H        -0.006181        -0.476432         2.488149
 H        -1.051554        -1.634756         1.641391
