19
Iteration:  1519
 O         0.478604         0.035860         0.211369
 C        -0.812641         0.377323         0.825958
 C        -2.122064         0.229613         0.026435
 C        -2.621980         1.318154         0.961709
 C        -2.591626         0.937121         2.504319
 C        -1.550911         2.135124         2.688003
 C        -1.213987         1.964619         1.203911
 O        -2.109623        -0.370137         2.790545
 C        -0.941139        -0.511385         2.038528
 H         0.631533         0.642307        -0.516478
 H        -2.077341         0.603251        -1.016408
 H        -2.362227        -0.833790        -0.110384
 H        -3.468915         1.966055         0.597905
 H        -3.570199         1.051150         3.077777
 H        -2.207248         3.046391         3.113272
 H        -0.872602         1.662911         3.526622
 H        -0.761680         2.614430         0.509029
 H         0.033064        -0.292959         2.675704
 H        -0.890641        -1.636949         1.694104
