19
Iteration:  2731charge 0 multiplicity 1
 O         0.392508         0.038766         0.034285
 C        -0.778630         0.378435         0.832786
 C        -2.045202         0.240253        -0.010061
 C        -2.621324         1.379441         0.970857
 C        -2.676257         1.021165         2.497899
 C        -1.700002         1.997254         2.777969
 C        -1.123997         1.788557         1.312394
 O        -2.117059        -0.312353         2.731582
 C        -0.800777        -0.481337         2.163441
 H         0.138767         0.308140        -0.852050
 H        -1.872979         0.770799        -0.951442
 H        -2.338182        -0.821298        -0.085141
 H        -3.298143         2.145980         0.649379
 H        -3.571419         1.091092         3.103410
 H        -2.082230         3.095807         2.728673
 H        -0.995905         1.912223         3.642793
 H        -0.681215         2.663190         0.774117
 H         0.056173        -0.222400         2.774022
 H        -0.705295        -1.573143         1.982055
