19
Iteration:  4975charge 0 multiplicity 1
 O         0.426009         0.249004         0.031226
 C        -0.731385         0.293110         0.760308
 C        -2.095372         0.111739         0.067223
 C        -2.657498         1.217411         0.947120
 C        -2.685985         1.048808         2.583606
 C        -1.574700         2.122533         2.607558
 C        -1.219038         1.773483         1.100301
 O        -2.096767        -0.274908         2.878873
 C        -0.883135        -0.575264         2.172414
 H         1.072447         0.886804         0.366996
 H        -2.103843         0.570568        -0.948899
 H        -2.551613        -0.860395         0.093296
 H        -3.546346         1.909375         0.786027
 H        -3.542810         1.215655         3.322305
 H        -2.031199         3.104747         2.583353
 H        -0.971647         1.999946         3.546439
 H        -0.604356         2.502466         0.543420
 H         0.082965        -0.320304         2.687312
 H        -0.805269        -1.614489         2.151459
