19
Iteration:  1074charge 0 multiplicity 1
 O         0.428474        -0.010478         0.079996
 C        -0.792304         0.318144         0.781695
 C        -2.098346         0.223186         0.069276
 C        -2.650652         1.374106         0.999430
 C        -2.638537         1.020530         2.503707
 C        -1.620440         2.135209         2.823916
 C        -1.164521         1.915902         1.326843
 O        -2.155974        -0.346577         2.604796
 C        -0.778369        -0.556574         2.107929
 H         0.830516         0.791633        -0.349549
 H        -2.036950         0.641947        -0.902151
 H        -2.614666        -0.714176        -0.162922
 H        -3.586503         1.812684         0.483447
 H        -3.558671         0.959773         3.107773
 H        -2.215536         3.087351         2.946075
 H        -0.923953         1.980281         3.685373
 H        -0.637863         2.559231         0.800887
 H        -0.043929        -0.056056         2.757888
 H        -0.552047        -1.639204         1.881476
