19
Iteration:   578charge 0 multiplicity 1
 O         0.499829         0.056105         0.312541
 C        -0.834186         0.415558         0.794055
 C        -2.130536         0.300162        -0.013650
 C        -2.677698         1.308396         0.948107
 C        -2.605239         0.987849         2.484666
 C        -1.435090         1.983958         2.758447
 C        -1.264554         1.870449         1.314117
 O        -2.129367        -0.278113         2.737091
 C        -0.966188        -0.574954         1.906673
 H         0.972614         0.806111        -0.131295
 H        -2.065755         0.543831        -1.184672
 H        -2.537130        -0.716242        -0.084311
 H        -3.584142         1.985887         0.698079
 H        -3.560559         1.103491         2.992425
 H        -1.790634         2.995295         3.104587
 H        -0.572889         1.742143         3.334432
 H        -0.740791         2.626497         0.632510
 H        -0.033572        -0.509162         2.483070
 H        -0.952162        -1.640694         1.621540
