19
Iteration:   429charge 0 multiplicity 1
 O         0.435354         0.171126         0.136912
 C        -0.811206         0.378800         0.795555
 C        -2.047062         0.316536        -0.068436
 C        -2.645168         1.361785         0.875112
 C        -2.590079         0.990381         2.505932
 C        -1.477659         1.985674         2.774614
 C        -1.228843         1.915732         1.264011
 O        -2.165649        -0.379181         2.851864
 C        -0.965233        -0.600271         1.977969
 H         0.989189        -0.090386         0.927659
 H        -1.936643         0.753787        -1.025945
 H        -2.626788        -0.668836        -0.114256
 H        -3.573200         1.786152         0.586053
 H        -3.632965         1.072935         2.971148
 H        -1.744421         2.932774         3.265657
 H        -0.673380         1.636422         3.576790
 H        -0.640422         2.565512         0.688683
 H        -0.132815        -0.309379         2.615671
 H        -1.060655        -1.645123         1.747095
