19
Iteration:  4312charge 0 multiplicity 1
 O         0.346801         0.205890         0.146591
 C        -0.801543         0.326876         0.850416
 C        -2.100366         0.035042         0.052899
 C        -2.738801         1.241012         0.961561
 C        -2.638257         1.032346         2.451185
 C        -1.496329         2.111715         2.540513
 C        -1.276743         1.849721         1.105927
 O        -1.977806        -0.235752         2.873738
 C        -0.834900        -0.583443         2.191345
 H         0.751579         1.050586         0.392712
 H        -1.811209         0.297044        -0.964262
 H        -2.670889        -0.984900         0.236491
 H        -3.629124         1.813039         0.637499
 H        -3.578883         1.125991         3.062326
 H        -2.046417         3.107463         2.682645
 H        -0.614225         1.911794         3.314588
 H        -0.899191         2.875612         0.629421
 H         0.079139        -0.459379         2.737767
 H        -0.738910        -1.535643         1.661865
