19
Iteration:  4097charge 0 multiplicity 1
 O         0.266117         0.244404         0.041196
 C        -0.782515         0.386294         0.922731
 C        -2.127963         0.007268         0.201335
 C        -2.613613         1.304896         0.829892
 C        -2.628899         1.012777         2.418730
 C        -1.623297         2.155133         2.631068
 C        -1.208713         1.846759         1.182015
 O        -2.001625        -0.346945         2.765776
 C        -0.733324        -0.454090         2.196165
 H         0.614251        -0.668121         0.106242
 H        -2.163247         0.250995        -0.863067
 H        -2.757269        -0.813594         0.580794
 H        -3.435351         1.916829         0.482065
 H        -3.567185         1.143027         2.961995
 H        -2.219521         3.028150         2.933425
 H        -0.918972         1.888233         3.409002
 H        -0.550261         2.520694         0.730567
 H         0.216728        -0.224961         2.746998
 H        -0.727710        -1.614589         1.971812
