19
Iteration:    49charge 0 multiplicity 1
 O         0.432094         0.235160         0.304351
 C        -0.806724         0.372192         0.868977
 C        -2.136589         0.303263         0.036859
 C        -2.639665         1.340678         1.036870
 C        -2.581165         1.005371         2.541832
 C        -1.424221         1.963153         2.697835
 C        -1.140852         1.814726         1.203361
 O        -2.257489        -0.391751         2.587947
 C        -0.896129        -0.640046         1.999326
 H         0.591015         0.993913        -0.311746
 H        -1.961178         0.913812        -0.836833
 H        -2.666922        -0.612890        -0.221639
 H        -3.484442         2.058051         0.683350
 H        -3.488750         1.154467         3.185654
 H        -1.793524         2.972636         2.950139
 H        -0.632588         1.778699         3.450069
 H        -0.643033         2.545665         0.548315
 H        -0.122961        -0.700233         2.686619
 H        -0.987319        -1.631447         1.534278
