19
Iteration:  3130charge 0 multiplicity 1
 O         0.511587         0.266973         0.022358
 C        -0.708177         0.348177         0.879001
 C        -2.102716         0.212753         0.151230
 C        -2.620489         1.313931         1.043153
 C        -2.656811         0.982508         2.469369
 C        -1.609325         2.123262         2.703606
 C        -1.153536         1.764072         1.304458
 O        -2.196888        -0.322674         2.644297
 C        -0.949202        -0.580015         2.046828
 H         0.928101        -0.615941         0.119310
 H        -2.173650         0.456437        -0.875872
 H        -2.639633        -0.722834         0.348409
 H        -3.285934         2.012024         0.636591
 H        -3.571516         0.953084         3.049943
 H        -2.033060         3.133736         2.731729
 H        -0.855430         2.116752         3.526880
 H        -0.790160         2.566607         0.670946
 H        -0.067476        -0.556012         2.783239
 H        -0.840427        -1.536440         1.725537
