19
Iteration:  2603charge 0 multiplicity 1
 O         0.422883         0.028599        -0.003361
 C        -0.722196         0.337872         0.893436
 C        -2.074550         0.155097         0.109517
 C        -2.597581         1.422639         0.913693
 C        -2.633677         0.981963         2.510065
 C        -1.635032         2.127356         2.753427
 C        -1.231122         1.893097         1.324505
 O        -2.078151        -0.304540         2.746482
 C        -0.915418        -0.576431         2.055459
 H         0.793116         0.877809        -0.337184
 H        -1.981350         0.438427        -0.984057
 H        -2.662147        -0.796376         0.179301
 H        -3.317390         2.104771         0.409216
 H        -3.618594         0.868286         2.900103
 H        -2.326959         2.939454         2.881862
 H        -0.987722         2.042825         3.591891
 H        -0.559741         2.638105         0.867203
 H        -0.151983        -0.251460         2.767310
 H        -0.882089        -1.666482         1.674672
