19
Iteration:  3967
 O         0.380223         0.163086         0.070278
 C        -0.865390         0.384986         0.895143
 C        -2.107747         0.102584         0.135576
 C        -2.691998         1.317543         0.891321
 C        -2.627017         0.975297         2.477931
 C        -1.557251         2.039041         2.631202
 C        -1.286689         1.825648         1.137240
 O        -2.076154        -0.334689         2.750029
 C        -0.707458        -0.374920         2.215078
 H         0.841160        -0.668539         0.197399
 H        -2.055624         0.449231        -0.931810
 H        -2.457332        -0.947104         0.055831
 H        -3.500339         1.997552         0.669774
 H        -3.553919         1.025562         3.082385
 H        -2.016617         3.082651         2.770826
 H        -0.656250         1.997994         3.326856
 H        -0.854353         2.612843         0.585752
 H         0.007359         0.236199         2.912643
 H        -0.398650        -1.396242         2.159953
