19
Iteration:  4769
 O         0.478192         0.166425        -0.037608
 C        -0.758427         0.323325         0.769575
 C        -2.155021         0.032096         0.155974
 C        -2.642615         1.260793         0.983042
 C        -2.686486         0.985533         2.505233
 C        -1.728170         2.190268         2.720510
 C        -1.212577         1.825580         1.165696
 O        -2.064420        -0.223859         2.807546
 C        -0.758642        -0.503892         2.131429
 H         1.283848         0.070502         0.482353
 H        -2.164404         0.347715        -0.898620
 H        -2.800548        -0.795204         0.358942
 H        -3.377082         1.970907         0.611779
 H        -3.648554         0.895922         2.956657
 H        -2.094588         3.196528         2.678138
 H        -1.035424         2.218220         3.606511
 H        -0.668514         2.540578         0.484088
 H         0.105755        -0.416306         2.893155
 H        -0.813993        -1.586360         1.884576
