19
Iteration:  2616charge 0 multiplicity 1
 O         0.369241         0.087189         0.120547
 C        -0.797405         0.335764         0.832875
 C        -2.121573         0.243454         0.116500
 C        -2.589332         1.344437         0.924397
 C        -2.658220         0.963148         2.454215
 C        -1.640590         2.082352         2.751566
 C        -1.121964         1.895477         1.221055
 O        -2.117164        -0.310501         2.732598
 C        -0.786573        -0.586972         2.084511
 H         0.783949         0.936448        -0.075462
 H        -1.942403         0.462955        -1.021271
 H        -2.660958        -0.788609         0.238669
 H        -3.508273         1.946987         0.669468
 H        -3.603929         1.110522         3.048539
 H        -1.999827         3.110930         2.802512
 H        -0.879584         2.006558         3.604348
 H        -0.714734         2.677916         0.564413
 H         0.142230        -0.723151         2.712121
 H        -0.959732        -1.618743         1.745646
