19
Iteration:  3102
 O         0.440032         0.234469         0.261823
 C        -0.871206         0.367422         0.848205
 C        -2.118696         0.212349         0.005898
 C        -2.722539         1.392629         0.946724
 C        -2.557157         0.942551         2.435308
 C        -1.447759         1.999046         2.673448
 C        -1.232390         1.896319         1.220812
 O        -2.167651        -0.395179         2.697866
 C        -0.892589        -0.518181         2.072764
 H         0.844292        -0.539146         0.668901
 H        -2.062578         0.512244        -1.094805
 H        -2.553390        -0.813736         0.187991
 H        -3.493512         2.136171         0.526196
 H        -3.387586         1.085745         3.172329
 H        -1.797400         2.891138         3.222326
 H        -0.475314         1.705047         3.145830
 H        -0.743509         2.655987         0.592994
 H        -0.028365        -0.080847         2.587062
 H        -0.458671        -1.596989         1.757186
