19
Iteration:  2206
 O         0.401272         0.086187         0.179223
 C        -0.763885         0.363146         0.842257
 C        -2.095714         0.140253         0.098748
 C        -2.599412         1.401736         0.946343
 C        -2.690560         0.973493         2.514131
 C        -1.529965         2.075907         2.711425
 C        -1.198559         1.887900         1.163567
 O        -2.119469        -0.315765         2.703133
 C        -0.844396        -0.537200         2.113722
 H         0.331684         0.621591        -0.625592
 H        -2.104944         0.620999        -0.951657
 H        -2.649331        -0.824406         0.017812
 H        -3.394994         2.047154         0.639816
 H        -3.732675         0.933667         2.772330
 H        -1.833641         3.107069         3.113148
 H        -0.670705         1.757973         3.355939
 H        -0.783148         2.700427         0.576970
 H        -0.165187        -0.462843         3.086037
 H        -0.730707        -1.608947         1.780036
