19
Iteration:  1280
 O         0.527912         0.113562         0.321781
 C        -0.829315         0.411798         0.701815
 C        -2.143737         0.239154        -0.094495
 C        -2.691415         1.275647         0.943135
 C        -2.590736         0.947985         2.539648
 C        -1.438081         2.021233         2.694932
 C        -1.249750         1.896870         1.209026
 O        -2.144230        -0.304611         2.888725
 C        -0.934602        -0.552010         2.006136
 H         0.882676         0.421025        -0.507133
 H        -1.994255         0.788113        -1.117595
 H        -2.619758        -0.742633        -0.300812
 H        -3.622692         1.787158         0.841450
 H        -3.524373         1.060431         3.092458
 H        -1.785882         3.063244         2.782948
 H        -0.631499         1.929184         3.470391
 H        -0.924361         2.837592         0.633413
 H        -0.044852        -0.606313         2.630433
 H        -1.237116        -1.487420         1.677670
