19
Iteration:  1091
 O         0.449750         0.058150         0.149630
 C        -0.725001         0.379328         0.807419
 C        -2.199420         0.253198         0.131845
 C        -2.629446         1.392404         0.981282
 C        -2.631993         0.936931         2.528348
 C        -1.544438         2.003061         2.697921
 C        -1.165340         1.794871         1.250960
 O        -2.173556        -0.383782         2.584734
 C        -0.873596        -0.427108         2.119913
 H         0.837334         0.932748        -0.113477
 H        -2.156288         0.463264        -1.028221
 H        -2.649288        -0.761301         0.256867
 H        -3.265775         2.223043         0.844071
 H        -3.617287         0.934577         3.040978
 H        -1.939751         3.045019         2.785063
 H        -0.844443         2.046746         3.557480
 H        -0.682999         2.725470         0.599574
 H        -0.135458        -0.035640         2.882539
 H        -0.633690        -1.483646         1.769843
