19
Iteration:  2654
 O         0.519743         0.174940         0.281317
 C        -0.769794         0.321731         0.746215
 C        -2.164009         0.164228        -0.074285
 C        -2.739311         1.313236         1.009506
 C        -2.537195         1.001785         2.597067
 C        -1.360357         1.989608         2.667868
 C        -1.232375         1.877854         1.112144
 O        -2.280784        -0.357976         2.727167
 C        -0.880142        -0.480399         2.102451
 H         0.729461         1.064642        -0.042925
 H        -2.174184         0.583642        -1.050495
 H        -2.798842        -0.686805         0.049859
 H        -3.629003         1.791481         0.667956
 H        -3.427053         1.175563         3.227854
 H        -1.827880         2.963372         3.060496
 H        -0.552739         1.577572         3.369928
 H        -1.068719         2.781132         0.478941
 H        -0.142406        -0.103380         2.833133
 H        -0.630635        -1.596875         1.899520
