19
Iteration:  3768
 O         0.489536         0.195468         0.120682
 C        -0.842845         0.336290         0.794412
 C        -2.112241         0.038210         0.086723
 C        -2.718669         1.227348         0.987811
 C        -2.634960         0.996934         2.533382
 C        -1.498607         2.086757         2.619623
 C        -1.222105         1.838022         1.165173
 O        -2.124877        -0.285963         2.772065
 C        -0.885732        -0.444266         2.136753
 H         0.895767         1.090544         0.090318
 H        -2.096396         0.476864        -0.886234
 H        -2.309026        -1.046570         0.118877
 H        -3.528940         1.981349         0.760682
 H        -3.495458         1.127355         3.164099
 H        -2.014107         3.118927         2.631397
 H        -0.654489         2.007113         3.369362
 H        -0.870975         2.453062         0.357203
 H         0.041673        -0.246953         2.809048
 H        -0.721065        -1.584422         1.975378
