19
Iteration:  4646
 O         0.386831         0.206058        -0.027651
 C        -0.731827         0.355669         0.887231
 C        -2.085317         0.100500         0.114461
 C        -2.592689         1.290793         0.887191
 C        -2.675565         0.963871         2.492202
 C        -1.659146         2.092482         2.603451
 C        -1.235420         1.781499         1.230875
 O        -2.051441        -0.252482         2.890600
 C        -0.795680        -0.443166         2.209657
 H         0.182380        -0.380339        -0.751340
 H        -2.002176         0.288519        -0.985886
 H        -2.479081        -0.831009         0.386587
 H        -3.406091         1.971121         0.406103
 H        -3.731889         0.820560         2.903859
 H        -2.066620         3.130752         2.563221
 H        -1.110197         1.876147         3.535521
 H        -0.835651         2.602913         0.643344
 H         0.065270        -0.012086         2.925203
 H        -0.566859        -1.531853         2.030741
