19
Iteration:  2424
 O         0.487862         0.069182         0.173806
 C        -0.818796         0.396679         0.865579
 C        -2.148994         0.144883         0.086296
 C        -2.646062         1.376147         0.954902
 C        -2.658447         1.059100         2.512839
 C        -1.497517         2.009707         2.683481
 C        -1.180100         1.874109         1.215109
 O        -2.205948        -0.397948         2.695328
 C        -0.852319        -0.455757         2.067746
 H         0.613106         0.806958        -0.432962
 H        -2.005016         0.530739        -0.984849
 H        -2.796094        -0.744791         0.232082
 H        -3.455893         2.076259         0.676421
 H        -3.568104         0.998571         3.212799
 H        -1.804228         3.036445         2.807359
 H        -0.667062         1.743086         3.300885
 H        -0.512432         2.638888         0.754087
 H        -0.060171        -0.249153         2.843570
 H        -0.529334        -1.557132         1.615843
