19
Iteration:  4516
 O         0.293901         0.094236         0.031830
 C        -0.769810         0.409809         0.864485
 C        -2.087636         0.060508         0.173808
 C        -2.679556         1.307433         0.900717
 C        -2.579872         0.954429         2.486296
 C        -1.664922         2.158920         2.660807
 C        -1.233164         1.897544         1.124744
 O        -1.997276        -0.397218         2.799294
 C        -0.780505        -0.384265         2.208190
 H         1.001689        -0.313162         0.578184
 H        -1.887481         0.368905        -0.968337
 H        -2.747101        -0.850215         0.107398
 H        -3.560550         1.925969         0.500543
 H        -3.617932         0.985049         2.952462
 H        -2.173495         3.122266         2.548535
 H        -0.900440         2.291660         3.489413
 H        -0.857022         2.712159         0.444235
 H         0.038197         0.067100         2.753797
 H        -0.395230        -1.433289         1.828020
