19
Iteration:   145
 O         0.413760         0.306740         0.180617
 C        -0.778887         0.424116         0.853840
 C        -2.132702         0.362632         0.078382
 C        -2.625493         1.429370         1.008541
 C        -2.628325         0.937715         2.560088
 C        -1.377577         2.020024         2.682066
 C        -1.083909         1.795652         1.232431
 O        -2.297473        -0.526897         2.588582
 C        -0.967631        -0.595263         2.026848
 H         0.855585        -0.518192         0.460804
 H        -2.006229         0.627999        -0.920234
 H        -2.657876        -0.680066         0.210555
 H        -3.440797         2.110271         0.674556
 H        -3.620008         1.043891         3.133015
 H        -1.829394         2.955705         2.789583
 H        -0.629827         2.021785         3.468087
 H        -0.397418         2.434986         0.713108
 H        -0.163260        -0.537531         2.891085
 H        -0.742003        -1.538049         1.520799
