19
Iteration:  3898charge 0 multiplicity 1
 O         0.471140         0.369134         0.191644
 C        -0.751868         0.354363         0.860749
 C        -2.193243         0.028587         0.130333
 C        -2.699133         1.239099         0.947532
 C        -2.569779         1.030701         2.466302
 C        -1.558280         2.174108         2.568186
 C        -1.268806         1.806155         1.134196
 O        -2.067953        -0.280827         2.859607
 C        -0.839943        -0.639306         2.089742
 H         0.434594        -0.410276        -0.399122
 H        -2.109434         0.326006        -0.930006
 H        -2.701159        -1.039118        -0.045468
 H        -3.515525         1.911063         0.523840
 H        -3.526439         1.204129         2.962688
 H        -2.088907         3.154079         2.788028
 H        -0.768374         2.104191         3.390587
 H        -0.632614         2.432117         0.493142
 H         0.013963        -0.372853         2.737372
 H        -0.877113        -1.750369         1.864485
