19
Iteration:  4734
 O         0.361567         0.268535         0.223204
 C        -0.859274         0.358834         0.894146
 C        -2.125990         0.083668         0.041257
 C        -2.698791         1.218055         0.942144
 C        -2.558268         0.928282         2.557281
 C        -1.475523         2.155656         2.573014
 C        -1.289440         1.842409         1.006996
 O        -2.046896        -0.287430         2.860079
 C        -0.806181        -0.476221         2.090688
 H         0.878896        -0.353574         0.738882
 H        -2.078228         0.684857        -0.919502
 H        -2.371095        -0.909384        -0.215513
 H        -3.709336         1.731037         0.615722
 H        -3.626151         0.903552         2.984737
 H        -1.922973         3.150541         2.739373
 H        -0.711377         1.815695         3.328428
 H        -0.882755         2.544669         0.243027
 H         0.037763        -0.306768         2.855885
 H        -0.786077        -1.393883         1.596519
