19
Iteration:  4024charge 0 multiplicity 1
 O         0.407203         0.316949         0.255580
 C        -0.841647         0.378522         0.913407
 C        -2.169477         0.109652         0.066353
 C        -2.713935         1.206534         0.840949
 C        -2.567169         0.973109         2.534761
 C        -1.539174         2.120795         2.554018
 C        -1.277355         1.839460         1.075018
 O        -1.995962        -0.247196         2.880048
 C        -0.858474        -0.606372         2.122168
 H         0.490258        -0.448690        -0.360303
 H        -2.015519         0.472262        -1.002214
 H        -2.588047        -0.854046         0.171332
 H        -3.630488         1.699725         0.512910
 H        -3.463951         1.146169         3.150764
 H        -1.790234         3.177023         2.838642
 H        -0.622775         1.814978         3.142263
 H        -0.664703         2.429321         0.330919
 H         0.191988        -0.375028         2.635657
 H        -0.778475        -1.541823         1.703023
