19
Iteration:  3172
 O         0.388600         0.213290         0.211964
 C        -0.822159         0.370592         0.850069
 C        -2.110706         0.249857        -0.003546
 C        -2.616627         1.402077         0.915594
 C        -2.700773         0.884057         2.390205
 C        -1.520376         1.965031         2.685523
 C        -1.161843         1.862924         1.261216
 O        -2.101786        -0.315162         2.781999
 C        -0.839209        -0.518699         2.138512
 H         0.155429        -0.444806        -0.445409
 H        -1.803151         0.731153        -0.999629
 H        -2.495427        -0.872186        -0.072982
 H        -3.361595         2.139176         0.800355
 H        -3.702229         1.064436         2.704741
 H        -2.016152         2.870759         3.029377
 H        -0.803060         1.762247         3.449236
 H        -0.514072         2.476085         0.618688
 H         0.020635        -0.147796         2.731196
 H        -0.707295        -1.648277         1.996345
