19
Iteration:  2553
 O         0.430852         0.126546         0.296733
 C        -0.848306         0.376731         0.852574
 C        -2.171393         0.262216        -0.015638
 C        -2.702506         1.407687         0.890586
 C        -2.616229         1.004717         2.536138
 C        -1.406039         2.018465         2.655424
 C        -1.239442         1.887979         1.183428
 O        -2.168551        -0.432834         2.681656
 C        -0.768132        -0.519492         2.143662
 H         0.429928         0.243231        -0.677161
 H        -1.998487         0.323739        -1.077957
 H        -2.469062        -0.771368         0.124301
 H        -3.615418         2.030197         0.740719
 H        -3.623817         0.987015         3.087788
 H        -1.833015         2.989709         2.994002
 H        -0.618245         1.745474         3.452771
 H        -0.635576         2.556421         0.548353
 H        -0.023285        -0.067101         2.828073
 H        -0.684957        -1.512654         1.935736
