19
Iteration:  1305charge 0 multiplicity 1
 O         0.453531         0.086838         0.237056
 C        -0.829710         0.330612         0.828421
 C        -2.024323         0.310171         0.009031
 C        -2.695896         1.321735         0.961920
 C        -2.650998         0.938377         2.524229
 C        -1.527203         2.128975         2.688371
 C        -1.216571         1.840768         1.227610
 O        -2.127534        -0.345392         2.786171
 C        -0.870246        -0.521388         2.022796
 H         0.363045         0.088381        -0.726314
 H        -1.856943         0.868820        -0.984144
 H        -2.525092        -0.698465        -0.318115
 H        -3.637291         1.976521         0.703749
 H        -3.563666         0.840782         3.145538
 H        -1.721944         3.193511         2.887155
 H        -0.635426         1.925527         3.326819
 H        -0.886413         2.641441         0.436662
 H        -0.054416        -0.340223         2.731652
 H        -0.815298        -1.668150         1.848791
