19
Iteration:  2404charge 0 multiplicity 1
 O         0.435371         0.237063         0.293604
 C        -0.863011         0.357163         0.823085
 C        -2.140054         0.270226         0.024120
 C        -2.648050         1.329819         0.921049
 C        -2.555842         1.001076         2.469668
 C        -1.430375         2.027025         2.673916
 C        -1.172071         1.815961         1.177615
 O        -2.117714        -0.321181         2.775590
 C        -0.955425        -0.650559         2.093374
 H         0.398867         0.590330        -0.621021
 H        -2.041651         0.539585        -1.119312
 H        -2.707794        -0.712575         0.085759
 H        -3.350134         2.006079         0.448942
 H        -3.540143         0.977653         2.924780
 H        -1.965037         2.969448         2.910812
 H        -0.690696         1.870883         3.423006
 H        -0.825995         2.526971         0.421864
 H        -0.131692        -0.543975         2.778191
 H        -0.944029        -1.799336         2.017062
