19
Iteration:  3148charge 0 multiplicity 1
 O         0.432957         0.294192         0.026593
 C        -0.739918         0.274151         0.813445
 C        -2.079280         0.163081         0.026208
 C        -2.594818         1.391006         0.885095
 C        -2.718235         1.020500         2.558646
 C        -1.628684         2.068863         2.804776
 C        -1.140763         1.827621         1.269269
 O        -2.183777        -0.322621         2.771707
 C        -0.804906        -0.621812         2.105699
 H         0.629833        -0.641138        -0.212800
 H        -1.798731         0.621962        -1.013084
 H        -2.664045        -0.841758        -0.035823
 H        -3.349870         2.120845         0.520717
 H        -3.709710         1.115596         2.994025
 H        -2.032568         3.109364         2.706474
 H        -1.198257         2.005084         3.792593
 H        -0.395031         2.545611         0.856242
 H         0.090919        -0.391016         2.686394
 H        -0.977675        -1.778152         1.935146
