19
Iteration:  2867
 O         0.487335        -0.062440         0.166324
 C        -0.720625         0.323431         0.772361
 C        -2.200114         0.275367         0.119728
 C        -2.691252         1.441837         1.014156
 C        -2.653391         0.939833         2.468222
 C        -1.590247         2.044251         2.783303
 C        -1.244697         1.922997         1.311477
 O        -2.131821        -0.398182         2.557041
 C        -0.781029        -0.398117         2.060215
 H         0.591258         0.228300        -0.772557
 H        -2.112478         0.751510        -0.867860
 H        -2.724801        -0.662205         0.281070
 H        -3.381175         2.284045         0.696041
 H        -3.512313         0.975019         3.154605
 H        -2.191008         3.017715         2.825029
 H        -0.835515         1.879529         3.625436
 H        -0.451415         2.605651         0.876892
 H        -0.074829         0.081060         2.718168
 H        -0.318400        -1.512385         2.092169
