19
Iteration:  1412charge 0 multiplicity 1
 O         0.534253         0.109520         0.403316
 C        -0.810459         0.336722         0.742414
 C        -2.148978         0.232944        -0.087673
 C        -2.674991         1.282750         1.007371
 C        -2.558369         0.958516         2.615140
 C        -1.522539         2.094385         2.685267
 C        -1.272605         1.925664         1.110662
 O        -2.051195        -0.315362         2.802326
 C        -0.998253        -0.584653         1.957611
 H         0.773557         0.608025        -0.373495
 H        -2.154192         0.691156        -1.103676
 H        -2.685699        -0.714007         0.011020
 H        -3.597227         1.945206         0.782077
 H        -3.574894         1.045079         3.064202
 H        -2.134150         3.009111         2.688725
 H        -0.608283         2.032459         3.357696
 H        -0.704289         2.595464         0.442550
 H        -0.025309        -0.447887         2.484704
 H        -1.075452        -1.546749         1.562077
