19
Iteration:  2255
 O         0.531837         0.113324         0.368918
 C        -0.895030         0.344452         0.775766
 C        -2.161062         0.289602        -0.025424
 C        -2.646557         1.285014         0.967742
 C        -2.600193         0.980399         2.511280
 C        -1.496718         2.093258         2.623470
 C        -1.263144         1.826939         1.189017
 O        -2.091070        -0.345927         2.807596
 C        -0.890707        -0.561277         1.989268
 H         0.552373         0.534117        -0.515733
 H        -2.107363         0.660680        -1.014319
 H        -2.768735        -0.616592         0.046370
 H        -3.397521         2.080920         0.746296
 H        -3.507593         1.211482         3.105357
 H        -1.835934         3.143954         2.870008
 H        -0.590817         1.896264         3.277800
 H        -0.934967         2.603510         0.476698
 H        -0.000379        -0.379518         2.628843
 H        -0.914362        -1.635869         1.753000
