19
Iteration:  1725charge 0 multiplicity 1
 O         0.419657         0.124553         0.230710
 C        -0.846660         0.389307         0.872843
 C        -2.138537         0.219871         0.058750
 C        -2.681085         1.383098         0.930647
 C        -2.603323         0.993965         2.450785
 C        -1.456741         1.965932         2.691684
 C        -1.281060         1.790883         1.171783
 O        -2.119538        -0.308232         2.703510
 C        -0.832728        -0.520812         2.099406
 H         0.847459         0.936773        -0.150550
 H        -2.064979         0.548090        -1.035790
 H        -2.573114        -0.816467         0.180251
 H        -3.422682         2.116774         0.627789
 H        -3.506270         0.897796         3.128327
 H        -1.617338         3.050601         2.892328
 H        -0.730345         1.755159         3.463929
 H        -0.767336         2.598079         0.436096
 H         0.009707        -0.261014         2.900304
 H        -0.797641        -1.672772         1.860844
