19
Iteration:   113charge 0 multiplicity 1
 O         0.400184         0.124250         0.055728
 C        -0.763577         0.313678         0.795069
 C        -2.055684         0.388255        -0.010956
 C        -2.594560         1.440041         0.946574
 C        -2.717073         0.984182         2.499863
 C        -1.563510         1.940404         2.919995
 C        -1.193773         1.835079         1.382796
 O        -2.148762        -0.316827         2.595222
 C        -0.837046        -0.519820         2.072045
 H         0.486971        -0.814349        -0.263295
 H        -1.875044         0.646068        -0.970032
 H        -2.623960        -0.600292         0.115917
 H        -3.414992         2.158114         0.536871
 H        -3.791358         0.930500         2.915323
 H        -1.876094         2.880805         3.233968
 H        -0.851015         1.436702         3.551926
 H        -0.512910         2.538798         0.930254
 H        -0.087237        -0.152541         2.808064
 H        -0.673213        -1.631027         2.014799
