19
Iteration:  1103
 O         0.454236         0.153444         0.211694
 C        -0.850787         0.409687         0.826489
 C        -2.169129         0.185714         0.099528
 C        -2.603975         1.456267         0.974695
 C        -2.667534         0.966298         2.475044
 C        -1.453339         1.979682         2.684926
 C        -1.155462         1.837130         1.179494
 O        -2.207432        -0.451765         2.692874
 C        -0.848770        -0.476779         2.085472
 H         0.887990         0.913525        -0.187414
 H        -2.222390         0.511526        -1.046956
 H        -2.738054        -0.729836         0.317576
 H        -3.330490         2.060291         0.495526
 H        -3.562839         1.097567         3.150789
 H        -1.951127         2.974323         2.917022
 H        -0.653881         1.513181         3.295641
 H        -0.628241         2.728945         0.499910
 H        -0.114404        -0.172391         2.868597
 H        -0.548848        -1.542009         1.870710
