19
Iteration:  1482charge 0 multiplicity 1
 O         0.423874         0.069281         0.084077
 C        -0.745391         0.298591         0.876314
 C        -2.158635         0.173897         0.108580
 C        -2.595229         1.444148         0.941938
 C        -2.707830         0.999127         2.475119
 C        -1.591058         2.036558         2.792167
 C        -1.129059         1.810750         1.225820
 O        -2.150719        -0.374660         2.569120
 C        -0.773666        -0.386115         2.216153
 H         0.204021         0.656979        -0.639676
 H        -2.073788         0.503601        -0.967161
 H        -2.697165        -0.835154         0.294131
 H        -3.515829         1.872964         0.602771
 H        -3.595532         0.989672         3.066243
 H        -2.069157         3.003100         2.856361
 H        -0.952459         1.789173         3.591280
 H        -0.504699         2.628287         0.662865
 H        -0.136014         0.085256         2.855800
 H        -0.513435        -1.452610         2.149615
