19
Iteration:  4790
 O         0.295728         0.065878         0.012151
 C        -0.775362         0.364520         0.843790
 C        -2.054459         0.061716         0.170086
 C        -2.658198         1.288089         0.878393
 C        -2.700159         1.024199         2.475945
 C        -1.638366         2.083940         2.679209
 C        -1.212322         1.841792         1.266851
 O        -2.030219        -0.264236         2.745277
 C        -0.749180        -0.403090         2.137844
 H         1.181692         0.417281         0.191673
 H        -2.110217         0.310781        -0.903878
 H        -2.316544        -0.923592         0.472798
 H        -3.493677         1.843798         0.357672
 H        -3.670975         0.960239         2.979438
 H        -2.044128         3.084567         2.806916
 H        -1.022552         1.920812         3.621703
 H        -0.784301         2.698580         0.674741
 H         0.012277        -0.010991         2.840900
 H        -0.445438        -1.379224         1.967987
