19
Iteration:   462
 O         0.521934         0.234119         0.273044
 C        -0.820801         0.312999         0.803495
 C        -2.137916         0.370008        -0.028943
 C        -2.742265         1.324801         1.017125
 C        -2.543973         0.999843         2.557009
 C        -1.443804         2.102951         2.716029
 C        -1.224882         1.812769         1.220699
 O        -2.152270        -0.363927         2.664453
 C        -0.963586        -0.664134         1.970570
 H         0.922208        -0.590882         0.604484
 H        -2.042853         0.879707        -0.934979
 H        -2.653201        -0.596202        -0.285263
 H        -3.623744         1.887693         0.806963
 H        -3.574895         1.094771         3.051385
 H        -1.965339         3.063869         2.688119
 H        -0.531584         2.044981         3.479927
 H        -0.701188         2.407082         0.534092
 H        -0.156855        -0.585375         2.694673
 H        -0.957018        -1.748545         1.849416
