19
Iteration:  4083charge 0 multiplicity 1
 O         0.356281         0.173435         0.074701
 C        -0.785231         0.344349         0.870262
 C        -2.169497         0.088713         0.189522
 C        -2.667456         1.303665         0.931776
 C        -2.617750         0.961387         2.488972
 C        -1.636723         2.146253         2.714779
 C        -1.201530         1.903326         1.108901
 O        -2.047874        -0.287499         2.693633
 C        -0.708674        -0.449530         2.163993
 H         0.523975        -0.780796         0.053005
 H        -1.989553        -0.001630        -0.835891
 H        -2.586811        -0.941450         0.410342
 H        -3.548667         1.884482         0.540593
 H        -3.558886         0.831797         3.037683
 H        -2.058156         3.129709         2.664159
 H        -0.929688         2.070358         3.506289
 H        -0.834272         2.576857         0.306831
 H         0.007052        -0.065642         3.084262
 H        -0.413908        -1.560335         1.877888
