19
Iteration:  4071charge 0 multiplicity 1
 O         0.476322         0.133670         0.082476
 C        -0.745517         0.343256         0.812987
 C        -2.140600         0.065557         0.165962
 C        -2.716373         1.290007         1.000521
 C        -2.665961         0.988032         2.501488
 C        -1.556313         2.131133         2.617974
 C        -1.296136         1.839800         1.176436
 O        -2.078223        -0.329553         2.723509
 C        -0.765458        -0.368286         2.141591
 H         0.586829        -0.798183        -0.179506
 H        -2.155078         0.467924        -0.819189
 H        -2.649167        -0.908766         0.318674
 H        -3.555316         1.996262         0.746386
 H        -3.594719         1.106348         3.074243
 H        -2.191087         3.009791         2.683975
 H        -0.800032         2.255155         3.381732
 H        -0.866199         2.732435         0.645274
 H         0.143286         0.175818         2.720012
 H        -0.545531        -1.491452         2.086556
