19
Iteration:  3292
 O         0.429903         0.032510         0.080054
 C        -0.734534         0.388372         0.889117
 C        -2.091954         0.239563         0.104253
 C        -2.629060         1.333721         1.015198
 C        -2.640326         0.999529         2.510262
 C        -1.543141         2.092216         2.727837
 C        -1.215214         1.983199         1.163675
 O        -2.185110        -0.444222         2.624867
 C        -0.892275        -0.528996         2.104503
 H         1.211327         0.560523         0.329784
 H        -1.969460         0.596055        -0.936004
 H        -2.497564        -0.739453         0.350056
 H        -3.449587         1.924445         0.679929
 H        -3.598974         1.025133         3.016978
 H        -2.053382         3.047783         2.866901
 H        -0.862436         2.101518         3.562112
 H        -0.873839         2.878148         0.624067
 H        -0.054278        -0.344865         2.723528
 H        -0.711847        -1.676976         1.878603
