19
Iteration:  4709charge 0 multiplicity 1
 O         0.579902         0.256586         0.207431
 C        -0.830684         0.343856         0.771913
 C        -2.142306         0.059364         0.047147
 C        -2.820082         1.209784         0.941671
 C        -2.553354         1.012950         2.617447
 C        -1.472616         2.029711         2.576039
 C        -1.360272         1.885939         1.059499
 O        -2.155905        -0.295149         2.844265
 C        -0.762603        -0.425965         2.072637
 H         0.842157        -0.579070         0.596574
 H        -2.261835         0.336742        -0.982796
 H        -2.680594        -0.917872         0.186841
 H        -3.719000         1.799419         0.572692
 H        -3.488252         1.246064         3.241763
 H        -1.816446         3.090509         2.741492
 H        -0.626018         1.754256         3.190204
 H        -0.974676         2.765815         0.592328
 H        -0.099037        -0.008405         2.774297
 H        -0.552362        -1.367588         1.784038
