19
Iteration:  3015
 O         0.405709         0.199524         0.079397
 C        -0.783697         0.327508         0.880013
 C        -2.082465         0.197078         0.119634
 C        -2.594104         1.439107         0.889553
 C        -2.727045         0.921222         2.429562
 C        -1.564695         2.005021         2.803248
 C        -1.100751         1.801597         1.277755
 O        -2.164922        -0.327313         2.681147
 C        -0.792976        -0.490714         2.144231
 H         0.194681         0.059530        -0.860661
 H        -2.106017         0.339611        -1.048775
 H        -2.861668        -0.642404         0.271508
 H        -3.387436         2.101844         0.418217
 H        -3.718774         0.969099         2.928568
 H        -1.960725         3.020814         2.850311
 H        -0.851621         1.944052         3.616143
 H        -0.591581         2.594743         0.726523
 H         0.018675        -0.302375         2.867200
 H        -0.732800        -1.563737         2.096666
