19
Iteration:  3655
 O         0.407326         0.182778         0.150466
 C        -0.807670         0.355476         0.868400
 C        -2.204286         0.090896         0.130650
 C        -2.655117         1.329971         0.915200
 C        -2.592085         1.006414         2.455442
 C        -1.591405         2.096832         2.674454
 C        -1.239724         1.833679         1.204352
 O        -2.075847        -0.314634         2.700213
 C        -0.764697        -0.464309         2.061442
 H         1.146332        -0.136222         0.702569
 H        -2.193571         0.057517        -0.962448
 H        -2.658788        -0.895601         0.342062
 H        -3.599629         1.875320         0.768983
 H        -3.567733         1.150597         2.950485
 H        -1.993722         3.132509         2.567228
 H        -0.927412         1.938538         3.575111
 H        -0.676617         2.501415         0.498016
 H         0.138947        -0.104777         2.769683
 H        -0.611189        -1.507206         2.012251
