19
Iteration:  4473charge 0 multiplicity 1
 O         0.497102         0.219822         0.135589
 C        -0.806288         0.348679         0.831709
 C        -2.218480         0.062544         0.076947
 C        -2.666973         1.182540         0.928602
 C        -2.654369         1.052547         2.542945
 C        -1.538902         2.117501         2.627320
 C        -1.298913         1.816709         1.092165
 O        -2.084345        -0.311459         2.849396
 C        -0.751234        -0.353383         2.098249
 H         0.577960        -0.688280        -0.255129
 H        -2.004842         0.320922        -1.015127
 H        -2.587088        -0.936024         0.304266
 H        -3.622417         1.702167         0.620678
 H        -3.492846         1.139123         3.291675
 H        -1.935231         3.099868         2.839519
 H        -0.883339         1.770281         3.459040
 H        -0.816817         2.606111         0.457488
 H         0.072361         0.130701         2.807703
 H        -0.585909        -1.511167         1.916575
