19
Iteration:  3546
 O         0.423992         0.052553         0.132391
 C        -0.712730         0.348696         0.864613
 C        -2.074912         0.116509         0.145698
 C        -2.717114         1.271838         0.928479
 C        -2.641161         1.023994         2.491744
 C        -1.562983         2.119455         2.697157
 C        -1.239197         1.911851         1.214614
 O        -2.159644        -0.342996         2.675585
 C        -0.780533        -0.436653         2.108316
 H         0.576306         0.821211        -0.462873
 H        -2.084008         0.174877        -0.966476
 H        -2.443607        -0.890226         0.413595
 H        -3.582763         1.880406         0.549805
 H        -3.599996         1.189336         3.065601
 H        -1.900292         3.187744         2.953466
 H        -0.743194         2.005420         3.496693
 H        -0.806305         2.580578         0.430175
 H        -0.088763        -0.102478         2.906145
 H        -0.710829        -1.589295         1.839321
