19
Iteration:  4969
 O         0.395742         0.227923         0.031681
 C        -0.757392         0.330180         0.817415
 C        -2.105034         0.093882         0.063566
 C        -2.654630         1.226796         0.986210
 C        -2.662282         1.004382         2.527125
 C        -1.562738         2.117093         2.657842
 C        -1.197954         1.786675         1.104730
 O        -2.117493        -0.253345         2.836519
 C        -0.822743        -0.529127         2.174309
 H         1.115713         0.783481         0.415715
 H        -2.169941         0.390422        -0.980131
 H        -2.701489        -0.878115         0.047940
 H        -3.457368         1.831594         0.567290
 H        -3.467439         1.245321         3.175713
 H        -2.084415         3.102517         2.637057
 H        -0.910125         2.014795         3.533214
 H        -0.820388         2.581139         0.412363
 H         0.070757        -0.443380         2.839352
 H        -0.772558        -1.694612         2.044021
