19
Iteration:  1980
 O         0.504538         0.218027         0.297090
 C        -0.809624         0.400265         0.769448
 C        -2.076746         0.221763         0.010733
 C        -2.713273         1.298487         0.983743
 C        -2.597992         1.035169         2.516822
 C        -1.484079         2.022977         2.692112
 C        -1.200534         1.826660         1.122591
 O        -2.119717        -0.327372         2.841223
 C        -0.981405        -0.606818         2.009784
 H         0.470816         0.641075        -0.604014
 H        -2.045030         0.732572        -0.976922
 H        -2.585316        -0.760240        -0.042137
 H        -3.680965         1.785517         0.621524
 H        -3.455715         1.259007         3.186887
 H        -1.912557         2.905356         3.066672
 H        -0.656206         1.617160         3.300620
 H        -0.600532         2.415213         0.332253
 H        -0.031570        -0.750576         2.768599
 H        -1.189735        -1.589093         1.444085
