19
Iteration:  3954
 O         0.309007         0.136709         0.110104
 C        -0.717675         0.362557         0.866871
 C        -2.129667         0.176864         0.080633
 C        -2.732026         1.284438         0.902479
 C        -2.641741         0.903162         2.473369
 C        -1.551315         2.049237         2.597412
 C        -1.291852         1.914909         1.135207
 O        -2.013617        -0.330966         2.748898
 C        -0.734998        -0.332576         2.253122
 H         0.545612        -0.774382         0.428704
 H        -1.730152         0.433140        -0.903164
 H        -2.814512        -0.776223         0.247203
 H        -3.610247         1.804594         0.392102
 H        -3.581162         0.966151         3.043345
 H        -1.959564         3.031614         3.059200
 H        -0.730284         1.719538         3.332066
 H        -0.759115         2.545394         0.463136
 H         0.008912         0.217820         2.917952
 H        -0.403869        -1.471419         2.121408
