19
Iteration:  1124
 O         0.454604         0.240721         0.266845
 C        -0.811476         0.329495         0.859139
 C        -2.137575         0.198482         0.022587
 C        -2.706455         1.304803         0.877591
 C        -2.515445         0.994334         2.479953
 C        -1.370150         1.985562         2.739699
 C        -1.264699         1.857934         1.234584
 O        -2.174340        -0.283861         2.699614
 C        -0.971612        -0.592640         2.082809
 H         0.528777         0.950225        -0.398846
 H        -1.963076         0.488316        -1.133078
 H        -2.610040        -0.815080        -0.020049
 H        -3.589618         1.880886         0.739288
 H        -3.504591         1.111762         3.000014
 H        -1.734812         2.987035         3.058258
 H        -0.525856         1.447910         3.189682
 H        -0.651657         2.763801         0.627981
 H        -0.085123        -0.522003         2.855487
 H        -0.918819        -1.651481         1.629209
