19
Iteration:  1217
 O         0.417132         0.101178         0.037963
 C        -0.748485         0.379243         0.745483
 C        -2.094781         0.179598         0.079968
 C        -2.536299         1.392504         0.997603
 C        -2.630436         0.975347         2.506666
 C        -1.563734         2.001062         2.787540
 C        -1.144897         1.851522         1.226803
 O        -2.263529        -0.383190         2.637351
 C        -0.871488        -0.461677         2.255168
 H         0.566867         0.764814        -0.647676
 H        -1.954421         0.335313        -0.971672
 H        -2.691288        -0.760502         0.165502
 H        -3.357162         2.123057         0.649002
 H        -3.551412         1.151650         3.023661
 H        -1.915004         3.015430         2.911402
 H        -0.868817         1.694926         3.579278
 H        -0.883512         2.773453         0.695640
 H        -0.157216        -0.054995         2.932369
 H        -0.464087        -1.465497         2.222872
