19
Iteration:  4080
 O         0.387173         0.155867         0.079666
 C        -0.762373         0.339612         0.852244
 C        -2.165589         0.077592         0.200053
 C        -2.690990         1.305641         0.953495
 C        -2.638904         0.955828         2.490738
 C        -1.609345         2.140104         2.704289
 C        -1.229719         1.893679         1.125371
 O        -2.060326        -0.285772         2.694269
 C        -0.725896        -0.445375         2.155698
 H         0.591221        -0.785899        -0.044044
 H        -1.988032         0.088004        -0.929604
 H        -2.581438        -0.915714         0.349040
 H        -3.554691         1.954219         0.652435
 H        -3.613889         0.929962         3.033037
 H        -2.143760         3.116386         2.573322
 H        -0.816215         2.133842         3.511914
 H        -0.858320         2.672261         0.340422
 H         0.080898        -0.002412         2.986478
 H        -0.368971        -1.425494         1.920204
