19
Iteration:  2047
 O         0.411141         0.041576         0.034546
 C        -0.755006         0.384260         0.863111
 C        -2.132738         0.206678         0.107926
 C        -2.544893         1.411084         0.908234
 C        -2.684816         0.977259         2.483664
 C        -1.562346         2.027672         2.785441
 C        -1.190131         1.855494         1.236783
 O        -2.217350        -0.414681         2.679641
 C        -0.782490        -0.392660         2.161494
 H         0.506569         0.586203        -0.760920
 H        -2.074844         0.396778        -0.983141
 H        -2.512602        -0.810758         0.426018
 H        -3.329928         2.194392         0.539233
 H        -3.732515         1.094098         2.953664
 H        -1.954219         2.975255         3.054543
 H        -0.920402         1.747787         3.660066
 H        -0.652571         2.637991         0.577018
 H         0.075708        -0.076282         2.945361
 H        -0.576790        -1.535339         2.158020
