19
Iteration:   604
 O         0.503505         0.245104         0.245175
 C        -0.812471         0.357090         0.836880
 C        -2.143411         0.318377        -0.036404
 C        -2.642875         1.366599         1.005097
 C        -2.595441         0.996730         2.551496
 C        -1.372585         1.996118         2.655765
 C        -1.179457         1.761485         1.172989
 O        -2.285807        -0.419942         2.717498
 C        -0.968498        -0.600620         2.087923
 H         0.881017         1.124510         0.013323
 H        -1.972723         0.739333        -1.002364
 H        -2.629182        -0.685969        -0.224179
 H        -3.350368         2.188955         0.785924
 H        -3.532100         1.162770         3.226615
 H        -1.801222         2.964159         2.766655
 H        -0.521107         1.674320         3.293321
 H        -0.886489         2.340422         0.336316
 H        -0.135637        -0.484162         2.837704
 H        -0.860678        -1.696290         1.844226
