19
Iteration:  2761charge 0 multiplicity 1
 O         0.463015         0.046393         0.242456
 C        -0.836913         0.406731         0.860051
 C        -2.121782         0.243170         0.075988
 C        -2.633165         1.383994         0.990506
 C        -2.580416         0.975603         2.455386
 C        -1.488731         1.998452         2.704613
 C        -1.267609         1.970495         1.189243
 O        -2.192089        -0.435394         2.645933
 C        -0.830192        -0.497627         2.094539
 H         0.502761         0.582911        -0.580849
 H        -2.083445         0.361580        -1.010084
 H        -2.605698        -0.757016         0.095354
 H        -3.510069         1.970060         0.811439
 H        -3.468842         1.140112         3.084352
 H        -1.734534         2.963786         3.023241
 H        -0.564161         1.834023         3.218710
 H        -0.980858         2.789162         0.565774
 H        -0.037077        -0.064631         2.767687
 H        -0.646343        -1.488984         1.930196
