19
Iteration:  3350charge 0 multiplicity 1
 O         0.582532         0.306394         0.074270
 C        -0.817114         0.287538         0.832710
 C        -2.146570         0.219438        -0.028428
 C        -2.663612         1.275974         0.962097
 C        -2.684895         0.963626         2.544644
 C        -1.510925         2.053381         2.750585
 C        -1.197701         1.784033         1.208495
 O        -2.207117        -0.280720         2.840098
 C        -0.884142        -0.533977         2.096042
 H         0.914236        -0.606876        -0.090107
 H        -1.898320         0.499149        -1.081321
 H        -2.710863        -0.849835        -0.247527
 H        -3.457597         2.019533         0.684863
 H        -3.751299         1.160928         2.924275
 H        -1.919259         3.077764         2.720438
 H        -0.603518         1.882866         3.413866
 H        -0.583488         2.586801         0.747647
 H         0.006113        -0.281957         2.610897
 H        -1.041296        -1.606163         1.860242
