19
Iteration:   161
 O         0.501468         0.319904         0.265747
 C        -0.832804         0.344459         0.816451
 C        -2.159128         0.218927         0.040335
 C        -2.636489         1.410197         1.011305
 C        -2.552136         1.002526         2.535176
 C        -1.385127         1.992513         2.777470
 C        -1.232360         1.869731         1.265748
 O        -2.229601        -0.358882         2.558506
 C        -0.991956        -0.683033         1.936938
 H         1.048058        -0.427780         0.486741
 H        -1.986935         0.723631        -1.008013
 H        -2.644817        -0.694600         0.084089
 H        -3.458663         2.140589         0.686486
 H        -3.369005         1.134342         3.205717
 H        -1.819940         3.013306         3.097151
 H        -0.542467         1.601908         3.378928
 H        -0.793504         2.645444         0.558815
 H        -0.151644        -0.685395         2.599492
 H        -1.052570        -1.797828         1.678395
