19
Iteration:  1833charge 0 multiplicity 1
 O         0.546503         0.265822         0.312212
 C        -0.782047         0.360593         0.763724
 C        -2.122280         0.235740         0.077696
 C        -2.734681         1.281249         1.059990
 C        -2.598126         1.059194         2.500584
 C        -1.375361         2.053044         2.659809
 C        -1.245950         1.843768         1.162683
 O        -2.240613        -0.374431         2.737148
 C        -0.971750        -0.611968         1.987004
 H         0.643762         0.076860        -0.615950
 H        -2.060044         0.526461        -0.956428
 H        -2.525481        -0.790422         0.189386
 H        -3.649527         1.779618         0.763427
 H        -3.415091         1.218360         3.243223
 H        -1.596578         3.201636         2.798935
 H        -0.544047         1.845472         3.349622
 H        -0.833623         2.339179         0.263001
 H        -0.055909        -0.644352         2.629416
 H        -0.796073        -1.583945         1.578737
