19
Iteration:  2191
 O         0.403411         0.107395         0.089457
 C        -0.766267         0.358316         0.912786
 C        -2.157934         0.166510         0.134052
 C        -2.650493         1.365858         0.879629
 C        -2.618886         1.037417         2.400167
 C        -1.542066         2.043412         2.757491
 C        -1.140482         1.871734         1.271919
 O        -2.176544        -0.350324         2.671330
 C        -0.814723        -0.511490         2.159970
 H         0.413726         0.697044        -0.706429
 H        -1.887848         0.190454        -0.889365
 H        -2.611987        -0.748304         0.485339
 H        -3.469942         2.000069         0.491619
 H        -3.436016         1.166711         3.138559
 H        -2.029609         2.928262         2.806295
 H        -0.987682         1.782154         3.600155
 H        -0.500810         2.575124         0.700456
 H         0.007427        -0.240821         2.689150
 H        -0.735924        -1.562125         1.879481
