19
Iteration:  1734
 O         0.411686         0.070689         0.140139
 C        -0.772308         0.357780         0.855286
 C        -2.115244         0.196400         0.057915
 C        -2.681632         1.337907         0.981188
 C        -2.619277         0.979931         2.492532
 C        -1.537808         2.017495         2.718504
 C        -1.179133         1.844748         1.215670
 O        -2.119176        -0.292639         2.684080
 C        -0.851625        -0.467253         2.127735
 H         0.698546         0.985101        -0.112027
 H        -1.979420         0.393594        -1.026711
 H        -2.756923        -0.735593         0.076965
 H        -3.514476         1.963725         0.632311
 H        -3.645714         1.098477         2.995910
 H        -2.034397         3.036671         2.848958
 H        -0.808451         1.586127         3.393199
 H        -0.603186         2.712736         0.705779
 H         0.079788        -0.320674         2.745396
 H        -0.927838        -1.493045         1.729178
