19
Iteration:   425
 O         0.424048         0.154922         0.122809
 C        -0.813610         0.378098         0.793762
 C        -2.043492         0.292941        -0.060551
 C        -2.645976         1.380312         0.880954
 C        -2.618542         0.963172         2.470366
 C        -1.450470         1.998053         2.828048
 C        -1.241251         1.914782         1.275880
 O        -2.155694        -0.337256         2.804091
 C        -0.960067        -0.606496         2.028280
 H         1.003771        -0.010228         0.871107
 H        -1.922113         0.698059        -1.086981
 H        -2.548678        -0.611017         0.021142
 H        -3.731099         1.753467         0.567677
 H        -3.579208         1.047370         2.999154
 H        -1.791192         2.937468         3.270050
 H        -0.770207         1.568488         3.515729
 H        -0.545088         2.627374         0.713571
 H        -0.024334        -0.368146         2.598494
 H        -1.005315        -1.686310         1.654717
