19
Iteration:  3413
 O         0.512318         0.024687         0.153780
 C        -0.798175         0.357228         0.739494
 C        -2.160287         0.170083         0.054979
 C        -2.645056         1.345779         0.990788
 C        -2.694602         0.981262         2.552683
 C        -1.571890         1.995815         2.719775
 C        -1.209979         1.871919         1.203020
 O        -2.169618        -0.310693         2.679649
 C        -0.783819        -0.410175         2.134120
 H         0.792103         0.917229        -0.172804
 H        -2.084351         0.544391        -0.968544
 H        -2.718380        -0.691182         0.218396
 H        -3.413200         2.071610         0.677234
 H        -3.710274         1.092831         3.078417
 H        -2.006678         3.019433         2.857429
 H        -0.736704         1.666295         3.367475
 H        -0.657788         2.556151         0.498880
 H        -0.081411         0.081573         2.922115
 H        -0.399670        -1.549487         2.007292
