19
Iteration:  4742
 O         0.355212         0.263666         0.178429
 C        -0.867633         0.382793         0.847209
 C        -2.075695         0.085235         0.035987
 C        -2.723303         1.210832         0.942911
 C        -2.581163         0.992489         2.525743
 C        -1.555360         2.140670         2.559794
 C        -1.256302         1.850449         1.078608
 O        -2.035537        -0.330095         2.891675
 C        -0.794963        -0.526753         2.099797
 H         1.006145        -0.277487         0.641285
 H        -1.834064         0.557554        -0.929662
 H        -2.673727        -0.860937         0.041331
 H        -3.576474         1.891988         0.623501
 H        -3.510647         1.133225         3.207658
 H        -2.035917         3.165799         2.610572
 H        -0.730685         2.152426         3.283610
 H        -0.721174         2.524055         0.433130
 H         0.062369        -0.409834         2.712343
 H        -0.748578        -1.553821         1.737420
