19
Iteration:  4563
 O         0.480673         0.232072         0.144332
 C        -0.814694         0.332724         0.762725
 C        -2.140599         0.023860         0.072535
 C        -2.725812         1.215864         0.976024
 C        -2.682171         0.998218         2.579466
 C        -1.430302         2.120409         2.589860
 C        -1.308367         1.755865         1.148115
 O        -2.078236        -0.201372         2.838460
 C        -0.818542        -0.485563         2.107552
 H         0.603447         1.211186        -0.001769
 H        -2.142283         0.181855        -0.989018
 H        -2.355860        -1.109557         0.155001
 H        -3.381297         1.920250         0.494822
 H        -3.599570         1.175148         3.081912
 H        -2.041212         2.953860         2.814943
 H        -0.739396         1.992531         3.446606
 H        -0.830258         2.373110         0.316162
 H        -0.056035        -0.238335         2.852759
 H        -0.746742        -1.601415         1.833241
