19
Iteration:  1706
 O         0.524984         0.218766         0.364653
 C        -0.861201         0.310697         0.809374
 C        -2.224943         0.181982         0.002776
 C        -2.700726         1.329425         0.970807
 C        -2.576260         1.001348         2.533238
 C        -1.363225         2.063937         2.620044
 C        -1.203448         1.868241         1.117050
 O        -2.193461        -0.437666         2.746575
 C        -0.896158        -0.503408         2.052721
 H         0.533015         0.985674        -0.271711
 H        -2.150806         0.482758        -1.073919
 H        -2.892806        -0.667116        -0.052528
 H        -3.574726         1.858365         0.569226
 H        -3.464889         1.156663         3.128770
 H        -1.733253         2.998014         2.995295
 H        -0.465498         1.698196         3.164815
 H        -0.619278         2.626671         0.603055
 H        -0.036972        -0.178651         2.667952
 H        -0.884725        -1.605667         1.787272
