19
Iteration:  3951
 O         0.324310         0.122347         0.116418
 C        -0.741038         0.366192         0.843544
 C        -2.133407         0.164699         0.062989
 C        -2.736945         1.291505         0.929512
 C        -2.652902         0.905004         2.462990
 C        -1.558974         2.063403         2.616882
 C        -1.280492         1.932858         1.129085
 O        -2.005822        -0.339726         2.753495
 C        -0.724777        -0.327791         2.277623
 H         0.614271        -0.785811         0.338942
 H        -1.720834         0.377351        -0.907711
 H        -2.806168        -0.732972         0.211537
 H        -3.641531         1.694089         0.379441
 H        -3.567236         1.012445         3.036475
 H        -1.884894         2.988493         3.053804
 H        -0.826373         1.793571         3.390161
 H        -0.735974         2.629173         0.411069
 H        -0.031620         0.158695         2.866386
 H        -0.451987        -1.515999         1.987412
