19
Iteration:  4179
 O         0.466965         0.182485         0.261576
 C        -0.853371         0.392116         0.798865
 C        -2.206830         0.041021         0.151736
 C        -2.727754         1.281754         0.919144
 C        -2.572649         0.923549         2.483830
 C        -1.512243         2.125358         2.557301
 C        -1.317486         1.954980         1.078149
 O        -2.030002        -0.299546         2.838202
 C        -0.720715        -0.503852         2.120234
 H         0.353839        -0.416342        -0.478384
 H        -2.041331         0.280251        -0.945349
 H        -2.813172        -0.894726         0.160018
 H        -3.713155         1.761621         0.689831
 H        -3.509927         1.073336         3.050856
 H        -2.017530         3.106876         2.793468
 H        -0.691930         1.973708         3.372110
 H        -1.007559         2.936717         0.542544
 H         0.114011        -0.115324         2.602819
 H        -0.622970        -1.523325         1.873354
