19
Iteration:  3458charge 0 multiplicity 1
 O         0.375176         0.228102         0.086982
 C        -0.757018         0.273090         0.907769
 C        -2.090965         0.122161         0.090028
 C        -2.633335         1.352861         0.896460
 C        -2.598852         0.973510         2.466958
 C        -1.543993         2.145676         2.649910
 C        -1.238864         1.966563         1.182655
 O        -2.131338        -0.370161         2.821672
 C        -0.906654        -0.589839         2.100299
 H         1.243137        -0.023198         0.478378
 H        -1.772331         0.462395        -0.884083
 H        -2.521439        -0.840049         0.185243
 H        -3.511695         1.980749         0.562856
 H        -3.578471         0.987316         3.064436
 H        -2.108213         3.137636         2.817505
 H        -0.657885         1.977449         3.332328
 H        -0.767190         2.806511         0.581312
 H         0.106218        -0.530523         2.688720
 H        -1.000832        -1.725425         1.666021
