19
Iteration:   442charge 0 multiplicity 1
 O         0.466918         0.214447         0.225120
 C        -0.813029         0.395225         0.783025
 C        -2.109836         0.355476        -0.103778
 C        -2.628210         1.329859         0.997088
 C        -2.637313         0.932314         2.586235
 C        -1.475819         2.003899         2.654765
 C        -1.172876         1.831071         1.175866
 O        -2.183059        -0.408259         2.865846
 C        -1.002174        -0.576617         1.998823
 H         1.113923        -0.279043         0.719715
 H        -1.864929         1.009584        -0.977706
 H        -2.534680        -0.663934        -0.478270
 H        -3.212208         2.125647         0.754320
 H        -3.512467         1.210463         3.179958
 H        -1.949196         3.008646         2.763475
 H        -0.564631         1.728453         3.308810
 H        -0.847868         2.685129         0.600221
 H        -0.074364        -0.543298         2.603056
 H        -0.928487        -1.551462         1.532940
