19
Iteration:   400charge 0 multiplicity 1
 O         0.371757         0.090982         0.038354
 C        -0.708464         0.397118         0.894295
 C        -2.093328         0.245297         0.174996
 C        -2.563063         1.433460         0.977317
 C        -2.692991         1.014733         2.502764
 C        -1.582545         1.987982         2.758697
 C        -1.138158         1.815789         1.301150
 O        -2.230362        -0.389415         2.570432
 C        -0.839028        -0.536637         2.039506
 H         1.109918         0.606896         0.415329
 H        -1.932888         0.741907        -0.835975
 H        -2.748588        -0.681670         0.243774
 H        -3.289361         2.180260         0.540195
 H        -3.628449         1.016144         2.989601
 H        -1.989218         3.019904         2.916712
 H        -0.988609         1.660163         3.594617
 H        -0.598288         2.633106         0.722655
 H        -0.005003        -0.229490         2.778247
 H        -0.684594        -1.587268         1.661468
