19
Iteration:  2691
 O         0.439943         0.144280         0.236505
 C        -0.768699         0.392454         0.896598
 C        -2.145260         0.191043         0.041685
 C        -2.648297         1.364550         0.933966
 C        -2.605539         1.039691         2.505299
 C        -1.522806         2.051170         2.706162
 C        -1.229302         1.917981         1.190663
 O        -2.099342        -0.339782         2.713881
 C        -0.861224        -0.658447         2.024846
 H         0.379326         0.393730        -0.710909
 H        -2.051149         0.248729        -1.049222
 H        -2.705726        -0.742228         0.094465
 H        -3.511724         2.078350         0.737764
 H        -3.488336         1.119651         3.138350
 H        -2.037202         2.979998         2.909287
 H        -0.975390         1.922872         3.613137
 H        -0.629800         2.665152         0.626742
 H        -0.085521        -0.488549         2.776141
 H        -0.862759        -1.745025         1.633286
