19
Iteration:  1039charge 0 multiplicity 1
 O         0.426865         0.129618         0.195621
 C        -0.794085         0.414167         0.779836
 C        -2.106943         0.302239        -0.003294
 C        -2.650626         1.375694         0.910460
 C        -2.614624         0.926615         2.460043
 C        -1.573550         1.942018         2.708089
 C        -1.129276         1.876557         1.251014
 O        -2.097076        -0.319252         2.873961
 C        -0.921618        -0.558056         2.059493
 H         0.338188        -0.014239        -0.784751
 H        -2.005322         0.932278        -0.954256
 H        -2.439922        -0.717328         0.012480
 H        -3.600103         1.927404         0.619953
 H        -3.619455         1.045371         2.969335
 H        -2.088155         2.995730         2.868423
 H        -0.878067         1.807888         3.618233
 H        -0.523218         2.663813         0.767502
 H        -0.055049        -0.489634         2.735921
 H        -0.811209        -1.582849         1.615876
