19
Iteration:  1184
 O         0.385984         0.007672         0.220505
 C        -0.804477         0.349411         0.835083
 C        -2.090193         0.297917         0.022863
 C        -2.629256         1.416684         0.952601
 C        -2.638456         0.974449         2.474445
 C        -1.646923         2.088558         2.772093
 C        -1.200567         1.879339         1.258106
 O        -2.056284        -0.348595         2.698565
 C        -0.778588        -0.556013         2.033728
 H         0.355105         0.081169        -0.731083
 H        -1.840166         0.674354        -0.931037
 H        -2.646690        -0.666325        -0.053596
 H        -3.513174         2.051822         0.591568
 H        -3.602001         0.920587         2.943316
 H        -1.894183         3.105965         3.060809
 H        -0.940385         1.783311         3.560610
 H        -0.791022         2.765403         0.802015
 H        -0.081240        -0.238225         2.737223
 H        -0.754099        -1.547104         1.694050
