19
Iteration:  3752charge 0 multiplicity 1
 O         0.433678         0.190611         0.296159
 C        -0.766847         0.384941         0.866102
 C        -2.208550         0.103755         0.100755
 C        -2.664016         1.257147         0.926666
 C        -2.550360         0.994094         2.519480
 C        -1.483056         2.148786         2.605798
 C        -1.306298         1.839680         1.037166
 O        -2.122661        -0.388086         2.769023
 C        -0.799732        -0.506072         2.093572
 H         0.575157         0.984135        -0.257472
 H        -2.160221         0.216041        -1.028405
 H        -2.888406        -0.748787         0.223329
 H        -3.539636         1.750404         0.562768
 H        -3.488928         1.107737         3.133343
 H        -1.979435         3.075127         2.806814
 H        -0.642456         1.932988         3.233211
 H        -0.835267         2.696916         0.484832
 H        -0.044030        -0.162408         2.812160
 H        -0.522491        -1.481189         1.759868
