19
Iteration:  4478
 O         0.521726         0.179984         0.113128
 C        -0.790019         0.337392         0.800349
 C        -2.200698         0.042959         0.060821
 C        -2.706116         1.223464         0.934067
 C        -2.644151         1.074918         2.559840
 C        -1.537801         2.111247         2.678326
 C        -1.350229         1.809143         1.096131
 O        -2.045419        -0.306885         2.810395
 C        -0.756381        -0.344947         2.124165
 H         0.591743        -0.749355        -0.114847
 H        -1.946270         0.367077        -0.914655
 H        -2.760526        -0.906127         0.245469
 H        -3.569105         1.761928         0.630928
 H        -3.520789         1.023659         3.178361
 H        -1.993447         3.121977         2.813767
 H        -0.874193         1.806831         3.481688
 H        -0.936171         2.621256         0.507950
 H        -0.161411         0.163585         2.851577
 H        -0.518157        -1.339558         2.057622
