19
Iteration:  3491
 O         0.530515         0.215935         0.215433
 C        -0.783628         0.271932         0.769760
 C        -2.153117         0.115730         0.043092
 C        -2.695774         1.290805         0.983610
 C        -2.656084         1.023828         2.567459
 C        -1.607499         2.083115         2.675083
 C        -1.225452         1.833226         1.212615
 O        -2.062959        -0.256500         2.771219
 C        -0.888889        -0.483345         2.012429
 H         0.813435        -0.629021        -0.170985
 H        -2.051369         0.422504        -1.001504
 H        -2.604157        -0.868206        -0.050434
 H        -3.355621         2.125184         0.641026
 H        -3.654607         1.025710         3.126512
 H        -1.952639         3.183527         2.649548
 H        -0.775231         2.022870         3.459529
 H        -0.798883         2.661288         0.577189
 H         0.087052        -0.357254         2.650294
 H        -0.958934        -1.669142         1.731279
