19
Iteration:  2895
 O         0.392414         0.101161         0.170746
 C        -0.757458         0.415821         0.885581
 C        -2.125090         0.204919         0.049444
 C        -2.612969         1.342767         0.946784
 C        -2.597967         0.941642         2.439913
 C        -1.468151         1.985004         2.728759
 C        -1.225254         1.927806         1.281455
 O        -2.199758        -0.404990         2.664140
 C        -0.875579        -0.426363         2.113241
 H         0.323772         0.378863        -0.770876
 H        -1.918148         0.527508        -1.034133
 H        -2.762845        -0.758261         0.056523
 H        -3.379380         2.092892         0.733459
 H        -3.515991         1.093476         3.019782
 H        -1.853900         2.989506         2.955417
 H        -0.725793         1.807703         3.495879
 H        -0.631772         2.720371         0.763617
 H         0.043384        -0.422910         2.861707
 H        -0.613190        -1.386934         1.781781
