19
Iteration:  3364charge 0 multiplicity 1
 O         0.501883         0.281541         0.151412
 C        -0.759904         0.350585         0.830138
 C        -2.057325         0.196624         0.005228
 C        -2.659902         1.331048         0.939058
 C        -2.638085         1.016745         2.510562
 C        -1.535668         2.089882         2.671077
 C        -1.215560         1.804700         1.227255
 O        -2.127295        -0.331386         2.799608
 C        -0.951914        -0.637410         2.102146
 H         0.360675        -0.436485        -0.493555
 H        -2.004536         0.717185        -0.975889
 H        -2.655465        -0.855896         0.079321
 H        -3.489230         1.970602         0.557042
 H        -3.483051         1.079633         3.186698
 H        -2.048023         3.088379         2.777972
 H        -0.880057         1.967910         3.606145
 H        -0.827501         2.524832         0.504867
 H        -0.124124        -0.552803         2.865790
 H        -0.912815        -1.639756         1.814482
