19
Iteration:  4497charge 0 multiplicity 1
 O         0.414604         0.073910         0.079940
 C        -0.779617         0.339724         0.822217
 C        -2.165836         0.145167         0.103342
 C        -2.739716         1.242701         1.012146
 C        -2.686964         0.920427         2.501485
 C        -1.601465         2.123625         2.609268
 C        -1.268328         1.863754         1.162885
 O        -2.059624        -0.280021         2.700372
 C        -0.655978        -0.308367         2.198898
 H         0.779032        -0.766817         0.364552
 H        -2.224346         0.547256        -0.885468
 H        -2.280369        -0.956851         0.208602
 H        -3.581295         1.862226         0.670020
 H        -3.473624         0.952103         3.238853
 H        -2.165197         3.018190         2.736646
 H        -0.755608         2.066843         3.336774
 H        -0.820508         2.656890         0.471887
 H         0.230223         0.326428         2.767179
 H        -0.513306        -1.445818         2.236706
