19
Iteration:  4439
 O         0.443391         0.401040         0.142368
 C        -0.779828         0.278408         0.937204
 C        -2.147780         0.031045         0.148540
 C        -2.687613         1.199786         0.875489
 C        -2.557907         1.031733         2.537581
 C        -1.554966         2.207649         2.547073
 C        -1.290970         1.830913         1.095153
 O        -2.079543        -0.261893         2.863228
 C        -0.827966        -0.630268         2.151722
 H         0.423365        -0.282079        -0.580859
 H        -1.929702         0.120523        -0.983380
 H        -2.632428        -0.930006         0.215106
 H        -3.617849         1.756545         0.554278
 H        -3.419091         1.330314         3.184383
 H        -1.981571         3.190743         2.723002
 H        -0.742675         2.099455         3.294707
 H        -0.849121         2.370618         0.265965
 H         0.197721        -0.671054         2.631341
 H        -1.000630        -1.703547         1.665053
