19
Iteration:  4433
 O         0.450937         0.381832         0.150328
 C        -0.775142         0.282909         0.872523
 C        -2.117249        -0.001755         0.118155
 C        -2.755834         1.188520         0.902419
 C        -2.578208         1.073384         2.565944
 C        -1.594631         2.252799         2.564185
 C        -1.220702         1.823763         1.136617
 O        -2.099647        -0.279845         2.885178
 C        -0.752129        -0.641385         2.077280
 H         0.413018        -0.341290        -0.485337
 H        -2.163300         0.345236        -0.905301
 H        -2.724801        -0.947587         0.293873
 H        -3.519982         1.780562         0.412309
 H        -3.517562         1.208226         3.094732
 H        -2.030106         3.258295         2.752832
 H        -0.632882         1.994591         3.067721
 H        -0.761395         2.350813         0.237253
 H         0.050980        -0.546199         2.852264
 H        -1.099774        -1.576461         1.837479
