19
Iteration:  4378charge 0 multiplicity 1
 O         0.364248         0.092395         0.083739
 C        -0.854517         0.324168         0.889329
 C        -2.068992         0.129006         0.116399
 C        -2.775167         1.288908         0.919454
 C        -2.642735         1.021847         2.424295
 C        -1.562619         2.105841         2.605522
 C        -1.307395         1.936957         1.177460
 O        -1.969535        -0.422722         2.751197
 C        -0.723258        -0.306579         2.221376
 H         0.740365        -0.782214         0.368096
 H        -1.840872         0.391287        -0.901185
 H        -2.624819        -0.908369         0.231815
 H        -3.759025         1.705370         0.676104
 H        -3.591199         0.967221         2.975130
 H        -1.811174         3.233348         2.658779
 H        -0.693977         2.048929         3.389112
 H        -1.053237         2.749509         0.369588
 H         0.116705         0.088869         2.872518
 H        -0.480206        -1.324645         2.310861
