19
Iteration:   914charge 0 multiplicity 1
 O         0.413946         0.047829         0.187471
 C        -0.749279         0.346260         0.823807
 C        -2.108186         0.315572        -0.040467
 C        -2.591893         1.446161         0.905472
 C        -2.587176         0.917040         2.562213
 C        -1.629717         2.068007         2.833474
 C        -1.150399         1.928570         1.291966
 O        -2.135739        -0.382959         2.710571
 C        -0.896517        -0.580730         2.010130
 H         0.296234         0.318209        -0.773159
 H        -1.917299         0.725378        -1.067462
 H        -2.714181        -0.664472        -0.112081
 H        -3.381528         2.069033         0.699477
 H        -3.514468         0.901622         3.076347
 H        -2.258790         2.983975         2.860828
 H        -0.927262         1.910652         3.667572
 H        -0.443807         2.763938         0.911328
 H         0.012418        -0.439640         2.610224
 H        -0.939017        -1.616895         1.685656
