19
Iteration:  2497charge 0 multiplicity 1
 O         0.493627         0.158324         0.193256
 C        -0.805434         0.293159         0.848709
 C        -2.198018         0.205046         0.018340
 C        -2.606466         1.305149         0.888178
 C        -2.635575         1.004393         2.536573
 C        -1.513862         2.096825         2.669135
 C        -1.213632         1.813928         1.263975
 O        -2.098540        -0.301220         2.790861
 C        -0.954841        -0.560393         2.023441
 H         0.655500         0.919718        -0.399278
 H        -1.756662         0.577439        -0.889658
 H        -2.580307        -0.791389        -0.175948
 H        -3.318509         2.120650         0.613625
 H        -3.560778         1.032733         3.278710
 H        -1.919457         3.100892         2.929704
 H        -0.763727         1.761690         3.503881
 H        -0.894918         2.651267         0.624929
 H         0.015690        -0.547444         2.558294
 H        -0.961885        -1.555593         1.795508
