19
Iteration:  3808
 O         0.295587         0.148153         0.028122
 C        -0.784319         0.397057         0.882901
 C        -2.071804         0.094264         0.095962
 C        -2.629748         1.337929         0.914006
 C        -2.635051         0.911777         2.435803
 C        -1.648607         2.117456         2.671687
 C        -1.252384         1.871779         1.142847
 O        -2.006840        -0.275108         2.815959
 C        -0.776630        -0.498234         2.178561
 H         0.953819        -0.320988         0.571401
 H        -1.947949         0.418870        -0.964069
 H        -2.550813        -0.920700         0.318386
 H        -3.510970         1.846322         0.558405
 H        -3.621345         0.805686         2.891343
 H        -2.106224         3.074540         2.802305
 H        -0.914645         2.143609         3.470596
 H        -0.595541         2.677353         0.732808
 H        -0.041545        -0.110977         2.884649
 H        -0.602440        -1.477688         1.921957
