19
Iteration:  2181charge 0 multiplicity 1
 O         0.383604         0.126382         0.092185
 C        -0.718592         0.328711         0.828347
 C        -2.125722         0.146923         0.193624
 C        -2.597572         1.407352         0.878291
 C        -2.657137         0.994258         2.483433
 C        -1.556291         2.038512         2.702824
 C        -1.118028         1.793954         1.321069
 O        -2.210685        -0.307970         2.678851
 C        -0.799766        -0.499496         2.066944
 H         0.381374         0.779437        -0.644364
 H        -2.196830         0.228606        -0.900311
 H        -2.718286        -0.743650         0.442788
 H        -3.448803         1.969782         0.536725
 H        -3.671606         1.160579         2.885496
 H        -2.060504         2.883943         2.810181
 H        -0.894358         2.007456         3.485376
 H        -0.421484         2.527491         0.901305
 H        -0.276158        -0.020184         2.882074
 H        -0.478729        -1.530265         2.127605
