19
Iteration:  4234charge 0 multiplicity 1
 O         0.382972         0.173809         0.015728
 C        -0.782429         0.417850         0.889233
 C        -2.102116         0.066801         0.171962
 C        -2.642547         1.284873         0.871688
 C        -2.588057         0.974697         2.445147
 C        -1.645123         2.161749         2.608708
 C        -1.238842         1.853481         1.183436
 O        -2.044699        -0.321292         2.820504
 C        -0.781282        -0.505798         2.266443
 H        -0.119798         0.008530        -0.810970
 H        -1.981433         0.122638        -0.956510
 H        -2.595991        -0.924728         0.446014
 H        -3.509954         1.908587         0.503098
 H        -3.547890         0.981742         3.033629
 H        -2.131078         3.117123         2.984791
 H        -0.824765         1.886565         3.413961
 H        -0.756337         2.654774         0.485020
 H         0.023140        -0.057061         2.788123
 H        -0.495938        -1.493938         2.056653
