19
Iteration:  2621
 O         0.355457         0.123240         0.175786
 C        -0.789970         0.337256         0.855408
 C        -2.118295         0.212491         0.051094
 C        -2.659825         1.373348         1.001736
 C        -2.647613         0.972405         2.428728
 C        -1.600017         2.086438         2.702071
 C        -1.097831         1.848012         1.190371
 O        -2.126201        -0.334286         2.743112
 C        -0.776962        -0.595985         2.077320
 H         0.881002         0.919499        -0.045752
 H        -2.072107         0.401085        -0.974342
 H        -2.666482        -0.688431         0.125462
 H        -3.499687         1.975819         0.724545
 H        -3.552557         1.135666         3.010113
 H        -1.842564         3.185389         2.815888
 H        -0.939908         1.872728         3.569987
 H        -0.781488         2.726222         0.592802
 H         0.120159        -0.498584         2.757048
 H        -0.926988        -1.581615         1.603623
