19
Iteration:  4627charge 0 multiplicity 1
 O         0.488285         0.130302         0.093126
 C        -0.774489         0.349006         0.801096
 C        -2.106756         0.027345         0.087029
 C        -2.737616         1.194765         0.998225
 C        -2.661308         1.014249         2.500122
 C        -1.621421         2.124779         2.719324
 C        -1.190027         1.902543         1.130969
 O        -2.103301        -0.270635         2.821680
 C        -0.758844        -0.370646         2.124827
 H         0.409677        -0.338227        -0.751205
 H        -2.274064         0.483551        -0.970942
 H        -2.667483        -0.982185         0.136879
 H        -3.528265         1.734469         0.453987
 H        -3.604401         1.012310         3.047353
 H        -2.186015         3.013411         2.979807
 H        -0.855064         2.121177         3.578386
 H        -0.697366         2.691648         0.479982
 H         0.034966        -0.017552         2.726279
 H        -0.478584        -1.489527         1.910043
