19
Iteration:  3380
 O         0.406356         0.173585         0.227805
 C        -0.841011         0.375269         0.941196
 C        -2.068282         0.177383         0.114570
 C        -2.628917         1.297082         0.975362
 C        -2.607018         0.974023         2.480609
 C        -1.583165         2.089869         2.651603
 C        -1.173324         1.937853         1.187323
 O        -2.154352        -0.332942         2.728748
 C        -0.833535        -0.580807         2.012770
 H         0.355040         0.001542        -0.734582
 H        -1.861426         0.498861        -0.900950
 H        -2.505409        -0.749319         0.117735
 H        -3.426876         1.929863         0.617029
 H        -3.640527         0.907068         2.904453
 H        -1.950316         3.094522         2.838859
 H        -0.736552         2.140362         3.332794
 H        -0.490234         2.571802         0.560330
 H         0.085642        -0.569158         2.689801
 H        -0.937931        -1.635651         1.480481
