19
Iteration:  3509
 O         0.501376         0.183217         0.254472
 C        -0.798739         0.349447         0.845479
 C        -2.207569         0.217569        -0.045880
 C        -2.681695         1.295302         0.914766
 C        -2.622414         0.963557         2.468384
 C        -1.493026         2.092270         2.673949
 C        -1.234146         1.789788         1.143736
 O        -2.132200        -0.341152         2.817609
 C        -0.804293        -0.455447         2.154778
 H         0.360493        -0.275277        -0.587273
 H        -2.176191         0.708638        -1.084320
 H        -2.636385        -0.801064         0.047570
 H        -3.611749         1.783936         0.650365
 H        -3.521770         1.033156         3.146530
 H        -2.055184         3.027915         2.775885
 H        -0.763782         1.783588         3.434516
 H        -0.752158         2.522509         0.424286
 H        -0.007610         0.023499         2.641886
 H        -0.533561        -1.422889         2.103873
