19
Iteration:  3325
 O         0.407488         0.197379         0.161031
 C        -0.833258         0.375081         0.877297
 C        -2.109576         0.210713         0.028596
 C        -2.675225         1.341177         0.952626
 C        -2.660938         0.996991         2.476478
 C        -1.474104         1.960825         2.743794
 C        -1.201088         1.853736         1.174561
 O        -2.109583        -0.343894         2.685075
 C        -0.880718        -0.487957         2.115596
 H         1.087472        -0.271061         0.707272
 H        -2.101519         0.352910        -1.050837
 H        -2.666682        -0.696221         0.103446
 H        -3.368039         2.050131         0.562605
 H        -3.604270         1.072993         3.038791
 H        -1.823516         2.970002         2.714747
 H        -0.719259         1.700925         3.437204
 H        -0.731944         2.680995         0.606039
 H        -0.070547        -0.063342         2.717297
 H        -0.651411        -1.571709         1.756843
