19
Iteration:   891charge 0 multiplicity 1
 O         0.494748         0.195277         0.253104
 C        -0.729301         0.399669         0.887833
 C        -2.145740         0.294066         0.083266
 C        -2.645570         1.401998         0.989338
 C        -2.686334         0.994318         2.457662
 C        -1.439463         1.949202         2.744115
 C        -1.211016         1.837084         1.260133
 O        -2.185016        -0.355444         2.630906
 C        -0.914743        -0.573690         1.981855
 H         0.202489        -0.179682        -0.578062
 H        -2.076203         0.607040        -0.955639
 H        -2.549416        -0.794768         0.110551
 H        -3.455075         2.071503         0.781353
 H        -3.641769         1.009715         2.996238
 H        -1.633143         2.970761         2.952306
 H        -0.713532         1.453185         3.355545
 H        -0.771153         2.689811         0.641849
 H        -0.106256        -0.394222         2.653044
 H        -0.841018        -1.611596         1.614461
