19
Iteration:  4992charge 0 multiplicity 1
 O         0.516232         0.225915         0.047272
 C        -0.864146         0.287709         0.853082
 C        -2.111374         0.128392        -0.011684
 C        -2.727891         1.252498         0.950231
 C        -2.617659         0.958255         2.555420
 C        -1.536473         2.170346         2.609360
 C        -1.236714         1.725894         1.186884
 O        -2.075074        -0.254251         2.974716
 C        -0.892363        -0.523635         2.090170
 H         0.901399         1.061600         0.341126
 H        -1.975438         0.459206        -1.069482
 H        -2.616009        -0.866204        -0.203646
 H        -3.437475         1.823023         0.429994
 H        -3.587144         1.181375         3.080562
 H        -2.056883         3.169834         2.524822
 H        -0.665938         2.179296         3.246207
 H        -0.901396         2.488108         0.478389
 H         0.017475        -0.468872         2.754320
 H        -0.794372        -1.685430         1.833742
