19
Iteration:   209charge 0 multiplicity 1
 O         0.421075         0.223332         0.204046
 C        -0.796336         0.359213         0.874949
 C        -2.123328         0.347487        -0.118702
 C        -2.636323         1.397603         0.930335
 C        -2.583158         0.949894         2.535176
 C        -1.497087         2.029340         2.819846
 C        -1.127436         1.837802         1.245734
 O        -2.185564        -0.427743         2.701725
 C        -0.928226        -0.595669         2.056390
 H         0.413191        -0.602163        -0.351947
 H        -1.835396         1.014409        -0.935704
 H        -2.703863        -0.596801        -0.413063
 H        -3.382267         2.085328         0.784392
 H        -3.537860         1.023520         3.100140
 H        -2.067227         2.950615         2.881395
 H        -0.764046         1.919338         3.656495
 H        -0.619063         2.581416         0.682924
 H        -0.059861        -0.499188         2.749981
 H        -0.807074        -1.626791         1.792243
