19
Iteration:  3616
 O         0.417634         0.126194         0.145499
 C        -0.805317         0.401934         0.850207
 C        -2.030499         0.177452         0.027471
 C        -2.735934         1.184918         0.967667
 C        -2.582202         1.022173         2.517333
 C        -1.446397         2.093961         2.611319
 C        -1.311923         1.831954         1.093601
 O        -2.189509        -0.315963         2.818508
 C        -0.842111        -0.476493         2.158473
 H         1.119589         0.762703         0.395044
 H        -1.808139         0.584536        -0.971259
 H        -2.488806        -0.861742         0.064501
 H        -3.651503         1.655048         0.569433
 H        -3.444194         1.157280         3.140204
 H        -1.864173         2.986380         3.053518
 H        -0.653687         1.834677         3.292059
 H        -1.005458         2.629721         0.465283
 H         0.114642        -0.115205         2.764892
 H        -0.819890        -1.546414         1.650774
