19
Iteration:  2014
 O         0.414733         0.023819         0.200768
 C        -0.807720         0.344430         0.827430
 C        -2.121789         0.264553         0.016014
 C        -2.631904         1.371187         0.977936
 C        -2.620805         1.009695         2.505186
 C        -1.579251         2.138441         2.760764
 C        -1.209024         1.841992         1.210734
 O        -2.112952        -0.383645         2.688045
 C        -0.814975        -0.500286         2.090041
 H         0.782033         0.498990        -0.577154
 H        -2.111528         0.691747        -1.007636
 H        -2.634779        -0.744906        -0.058648
 H        -3.555285         2.002248         0.682227
 H        -3.556651         0.958382         3.158524
 H        -2.143429         2.959938         3.091358
 H        -0.922395         1.871023         3.607014
 H        -0.682011         2.523017         0.451027
 H         0.179620        -0.181493         2.673947
 H        -0.655935        -1.582294         1.666566
