19
Iteration:  2687charge 0 multiplicity 1
 O         0.433082         0.154215         0.271755
 C        -0.762461         0.365001         0.874360
 C        -2.118967         0.193772         0.067968
 C        -2.675693         1.366723         0.931435
 C        -2.605023         0.997381         2.525076
 C        -1.468235         2.051837         2.672711
 C        -1.224499         1.890195         1.187856
 O        -2.135234        -0.327876         2.712983
 C        -0.868580        -0.596529         1.997691
 H         0.334756         0.492148        -0.624109
 H        -2.015397         0.373244        -0.998119
 H        -2.769560        -0.675832         0.184027
 H        -3.527292         1.931243         0.584497
 H        -3.519965         0.988591         3.119566
 H        -2.034698         3.019221         2.969546
 H        -0.786766         1.866323         3.584864
 H        -0.744495         2.692835         0.561256
 H        -0.047313        -0.563986         2.748446
 H        -0.866097        -1.679536         1.595701
