19
Iteration:  2749charge 0 multiplicity 1
 O         0.399238         0.030443         0.126520
 C        -0.735685         0.332729         0.853801
 C        -2.094995         0.263062         0.052008
 C        -2.639963         1.326996         0.917134
 C        -2.708696         0.899786         2.462277
 C        -1.453473         2.095964         2.789069
 C        -1.245636         1.965767         1.251894
 O        -2.146960        -0.360281         2.692210
 C        -0.834387        -0.471923         2.123448
 H         0.310263         0.451061        -0.734170
 H        -1.756747         0.769541        -0.876718
 H        -2.750390        -0.633331         0.083470
 H        -3.531110         1.866261         0.576022
 H        -3.740538         0.949991         2.891894
 H        -1.894778         2.995281         3.082367
 H        -0.727429         1.713939         3.487295
 H        -0.630424         2.619447         0.671907
 H        -0.121052        -0.051796         2.898880
 H        -0.537874        -1.473019         1.985593
