19
Iteration:  2037charge 0 multiplicity 1
 O         0.396397         0.006102         0.075501
 C        -0.715565         0.350696         0.801674
 C        -2.102899         0.225770         0.112909
 C        -2.642824         1.392139         0.984825
 C        -2.740629         0.973797         2.450485
 C        -1.546822         1.992701         2.747099
 C        -1.143529         1.824068         1.323811
 O        -2.192624        -0.322631         2.639070
 C        -0.737306        -0.406857         2.163104
 H         0.611891         0.561100        -0.672830
 H        -2.153049         0.467721        -0.969187
 H        -2.804365        -0.672903         0.206254
 H        -3.457414         2.081956         0.527806
 H        -3.701501         0.994311         3.101396
 H        -2.148262         2.862855         2.850089
 H        -0.749690         2.022369         3.487658
 H        -0.726541         2.737530         0.796062
 H        -0.030113         0.130705         2.976089
 H        -0.443238        -1.473748         1.816497
