19
Iteration:  2592
 O         0.438130         0.006171        -0.014167
 C        -0.735097         0.353058         0.804018
 C        -2.021153         0.174174         0.030813
 C        -2.672768         1.401011         0.983423
 C        -2.707185         0.985871         2.491087
 C        -1.684562         2.140162         2.790132
 C        -1.125983         1.841954         1.343705
 O        -2.164432        -0.329239         2.754036
 C        -0.823074        -0.517788         2.087023
 H         0.722986         0.725415        -0.587270
 H        -1.980853         0.279988        -1.104469
 H        -2.527733        -0.830237         0.242039
 H        -3.389635         2.213747         0.701661
 H        -3.550048         1.132087         3.138211
 H        -1.923450         3.199190         2.775538
 H        -1.023867         2.017090         3.647091
 H        -0.744683         2.753297         0.861434
 H         0.025580        -0.329574         2.781761
 H        -0.649295        -1.656657         1.902261
