19
Iteration:  2307charge 0 multiplicity 1
 O         0.434277         0.107678         0.037053
 C        -0.763833         0.367586         0.799535
 C        -2.142958         0.137111         0.142843
 C        -2.640319         1.354239         0.955857
 C        -2.727245         0.959204         2.419586
 C        -1.502112         2.053409         2.823673
 C        -1.055345         1.829848         1.199413
 O        -2.209541        -0.357497         2.668919
 C        -0.849062        -0.457639         2.176493
 H         0.545240         0.924742        -0.506844
 H        -2.010203         0.540110        -0.874743
 H        -2.668389        -0.819524         0.360659
 H        -3.459567         2.064088         0.708871
 H        -3.561601         1.233232         2.995843
 H        -2.029288         3.093259         2.740526
 H        -0.805286         1.873594         3.694552
 H        -0.361497         2.483379         0.636073
 H        -0.246826         0.083311         3.016518
 H        -0.726335        -1.529650         2.277388
