19
Iteration:  2218
 O         0.475381         0.072879         0.229301
 C        -0.768229         0.358203         0.833583
 C        -2.113774         0.269876         0.042746
 C        -2.659025         1.277019         0.992749
 C        -2.654679         0.975327         2.490287
 C        -1.477605         2.069355         2.652498
 C        -1.264043         1.872617         1.222573
 O        -2.173412        -0.314768         2.774532
 C        -0.882302        -0.520847         2.032775
 H         0.593768         0.411491        -0.688005
 H        -1.913236         0.699883        -0.997961
 H        -2.552588        -0.755424        -0.002194
 H        -3.467857         1.919165         0.644929
 H        -3.494649         1.110263         3.163394
 H        -1.931307         3.125583         2.898481
 H        -0.621540         1.774923         3.347187
 H        -0.785553         2.579859         0.541387
 H         0.103064        -0.116585         2.567056
 H        -0.826024        -1.617141         1.827791
