19
Iteration:   507
 O         0.451719         0.247052         0.034969
 C        -0.747961         0.315041         0.837609
 C        -2.082084         0.208447         0.143678
 C        -2.615947         1.418812         0.916547
 C        -2.672369         1.000686         2.399545
 C        -1.504695         1.916094         2.742397
 C        -1.095625         1.849956         1.327505
 O        -2.291690        -0.359764         2.684947
 C        -0.859543        -0.475411         2.151033
 H         0.245709        -0.370134        -0.699691
 H        -2.024186         0.504885        -0.891928
 H        -2.714912        -0.713061         0.168763
 H        -3.389313         1.978009         0.520719
 H        -3.539682         1.118046         3.076598
 H        -1.915325         2.905497         3.064263
 H        -0.845876         1.498606         3.633840
 H        -0.498519         2.646505         0.937344
 H        -0.155243        -0.130303         2.902835
 H        -0.682447        -1.547113         2.103858
