19
Iteration:   991charge 0 multiplicity 1
 O         0.496999         0.314447         0.165172
 C        -0.837301         0.400053         0.861285
 C        -2.177122         0.173444         0.131185
 C        -2.673588         1.353695         1.013824
 C        -2.594852         1.013613         2.527625
 C        -1.395620         1.959403         2.620520
 C        -1.113200         1.909380         1.189402
 O        -2.269176        -0.438487         2.607272
 C        -0.969577        -0.571702         2.061777
 H         1.069914        -0.208440         0.749863
 H        -1.959637         0.611797        -0.871271
 H        -2.855293        -0.677684         0.373220
 H        -3.546280         1.810327         0.681066
 H        -3.387783         1.155133         3.207612
 H        -1.808206         2.913974         2.974994
 H        -0.620982         1.698823         3.360918
 H        -0.461989         2.618933         0.502407
 H        -0.103911        -0.366040         2.671012
 H        -0.740688        -1.536847         1.675900
