19
Iteration:  3586charge 0 multiplicity 1
 O         0.434970         0.167471         0.161643
 C        -0.865544         0.299857         0.824649
 C        -2.134317         0.170901         0.026470
 C        -2.666002         1.320804         0.933884
 C        -2.648885         1.002994         2.461162
 C        -1.584540         2.142883         2.602978
 C        -1.197093         1.751736         1.162757
 O        -2.067676        -0.285993         2.874956
 C        -0.789760        -0.558825         2.117343
 H         0.897317         1.015156         0.185571
 H        -1.984893         0.191403        -1.095913
 H        -2.753280        -0.727520         0.165401
 H        -3.487922         2.017269         0.717124
 H        -3.621882         0.926482         3.062707
 H        -2.092035         3.096119         2.734468
 H        -0.900413         1.965434         3.425090
 H        -0.661080         2.612021         0.667983
 H         0.169095        -0.317407         2.691258
 H        -0.705532        -1.565156         1.872284
