19
Iteration:  2588
 O         0.437260        -0.000516         0.004559
 C        -0.740514         0.367342         0.770174
 C        -2.047997         0.191859         0.022449
 C        -2.654310         1.370918         0.982591
 C        -2.734336         1.006311         2.500921
 C        -1.672378         2.120268         2.804130
 C        -1.110382         1.839440         1.328755
 O        -2.179920        -0.331121         2.743942
 C        -0.784049        -0.504437         2.106749
 H         0.622204         0.753041        -0.601234
 H        -1.936406         0.355984        -1.002750
 H        -2.422294        -0.751127         0.258973
 H        -3.396968         2.119142         0.778520
 H        -3.616363         1.084406         3.142864
 H        -1.924859         3.187365         2.703665
 H        -1.024219         1.968863         3.650445
 H        -0.726666         2.702511         0.748610
 H         0.040304        -0.339324         2.769417
 H        -0.704223        -1.598506         1.944705
