19
Iteration:  4675
 O         0.348128         0.299479         0.117473
 C        -0.797505         0.298945         0.910289
 C        -2.160730         0.052164         0.156691
 C        -2.630056         1.262833         0.935017
 C        -2.572983         0.999417         2.445465
 C        -1.589028         2.166606         2.584737
 C        -1.237348         1.824654         1.189058
 O        -2.106547        -0.276718         2.747049
 C        -0.702541        -0.517761         2.163502
 H         0.578003        -0.542822        -0.325813
 H        -2.055111         0.229847        -0.902258
 H        -2.567380        -0.993037         0.330235
 H        -3.556349         1.742863         0.658735
 H        -3.600072         0.932843         2.810914
 H        -2.005194         3.194058         2.651841
 H        -1.029589         2.066742         3.484622
 H        -0.742321         2.556278         0.577785
 H         0.045731        -0.159033         2.808406
 H        -0.547798        -1.538316         2.018219
