19
Iteration:  2214
 O         0.430952         0.082086         0.220971
 C        -0.720040         0.351143         0.831725
 C        -2.117420         0.226819         0.054039
 C        -2.619384         1.322270         0.988506
 C        -2.675534         0.958788         2.502183
 C        -1.486935         2.087988         2.664422
 C        -1.264643         1.878174         1.212420
 O        -2.164532        -0.301060         2.757224
 C        -0.865089        -0.534426         2.046182
 H         0.551327         0.445416        -0.654272
 H        -1.948921         0.720783        -0.899995
 H        -2.557504        -0.764777         0.030179
 H        -3.429104         1.947037         0.651580
 H        -3.650297         1.042436         3.048071
 H        -1.863298         2.969245         2.932350
 H        -0.680525         1.755285         3.212716
 H        -0.779681         2.591086         0.542921
 H        -0.064709        -0.218707         2.631048
 H        -0.750356        -1.590905         1.829948
