19
Iteration:  2514charge 0 multiplicity 1
 O         0.534833         0.203449         0.296047
 C        -0.786220         0.377407         0.773431
 C        -2.086887         0.162194        -0.012532
 C        -2.747459         1.310304         1.031956
 C        -2.633523         1.058133         2.589551
 C        -1.440758         2.057973         2.725984
 C        -1.230701         1.790559         1.140025
 O        -2.159435        -0.271898         2.734996
 C        -0.930690        -0.640274         1.994910
 H         0.636254         0.688788        -0.544995
 H        -2.343976         0.593085        -1.031449
 H        -2.538180        -0.856586         0.190573
 H        -3.597868         1.823334         0.597813
 H        -3.550882         1.284901         3.027836
 H        -1.801933         3.087368         2.773545
 H        -0.702472         1.829743         3.428824
 H        -0.629601         2.495242         0.546279
 H        -0.039167        -0.620598         2.670138
 H        -1.057791        -1.738865         1.496197
