19
Iteration:  3963charge 0 multiplicity 1
 O         0.351263         0.152652         0.075953
 C        -0.826309         0.388383         0.939086
 C        -2.110784         0.153387         0.139932
 C        -2.692089         1.292075         0.849368
 C        -2.623884         0.952765         2.480614
 C        -1.550814         2.031567         2.618615
 C        -1.306699         1.837364         1.138006
 O        -2.059575        -0.326345         2.748988
 C        -0.710871        -0.342622         2.195558
 H         0.722196        -0.732450         0.321966
 H        -2.043987         0.462971        -0.886542
 H        -2.526798        -0.917824         0.055787
 H        -3.505018         2.045760         0.663822
 H        -3.544173         0.916840         3.067536
 H        -2.038241         3.001254         2.824584
 H        -0.620874         1.834075         3.193401
 H        -0.806927         2.629738         0.542705
 H        -0.055192         0.133299         2.868802
 H        -0.292364        -1.459649         2.369880
