19
Iteration:  4966charge 0 multiplicity 1
 O         0.387923         0.211936         0.029768
 C        -0.776893         0.344118         0.852065
 C        -2.123607         0.080605         0.064352
 C        -2.655898         1.235225         0.996423
 C        -2.629651         0.991495         2.495416
 C        -1.562021         2.113524         2.667121
 C        -1.195336         1.798889         1.131727
 O        -2.121472        -0.250475         2.818679
 C        -0.793386        -0.518108         2.168952
 H         1.101872         0.715392         0.450356
 H        -2.130104         0.338600        -0.970882
 H        -2.684625        -0.888984         0.081019
 H        -3.458311         1.831032         0.436046
 H        -3.513556         1.173530         3.060337
 H        -2.065815         3.076629         2.689804
 H        -0.813981         2.042613         3.515254
 H        -0.933680         2.584247         0.366483
 H         0.015552        -0.370994         2.928522
 H        -0.836941        -1.549762         1.914624
