19
Iteration:   876charge 0 multiplicity 1
 O         0.553720         0.314580         0.223137
 C        -0.805704         0.386234         0.758187
 C        -2.152701         0.202811         0.026586
 C        -2.664895         1.390649         0.974394
 C        -2.601159         0.985512         2.578801
 C        -1.392420         1.878747         2.737844
 C        -1.170262         1.860216         1.215934
 O        -2.293705        -0.370898         2.603672
 C        -0.971839        -0.546360         2.129567
 H         0.663083        -0.286709        -0.526569
 H        -2.009664         0.614368        -0.990409
 H        -2.719689        -0.710052         0.207922
 H        -3.470681         2.132255         0.483834
 H        -3.484775         1.240812         3.264616
 H        -1.719564         2.811582         3.208542
 H        -0.561601         1.590965         3.380037
 H        -0.603351         2.574200         0.649656
 H        -0.151355        -0.448068         2.885029
 H        -0.895406        -1.620164         1.713080
