19
Iteration:  1570charge 0 multiplicity 1
 O         0.497910         0.227211         0.341959
 C        -0.804446         0.333340         0.788682
 C        -2.176755         0.182398         0.015996
 C        -2.627015         1.343677         0.948077
 C        -2.578860         1.013230         2.520011
 C        -1.412412         2.015260         2.675223
 C        -1.262259         1.878149         1.162403
 O        -2.150807        -0.297670         2.773979
 C        -0.936376        -0.625955         2.013176
 H         0.629285         0.611609        -0.518830
 H        -2.122613         0.460329        -1.051320
 H        -2.700748        -0.826132         0.101646
 H        -3.570108         1.726764         0.675760
 H        -3.523097         1.196371         3.037292
 H        -1.952926         2.873075         2.784567
 H        -0.659876         1.711812         3.305807
 H        -0.827014         2.759052         0.520121
 H        -0.053535        -0.514471         2.647210
 H        -1.088343        -1.663729         1.732003
