19
Iteration:  1046charge 0 multiplicity 1
 O         0.407486         0.046613         0.137017
 C        -0.782860         0.458147         0.829836
 C        -2.027014         0.338360         0.008647
 C        -2.625750         1.390150         0.959838
 C        -2.684967         0.889169         2.451461
 C        -1.570227         1.957517         2.720198
 C        -1.162372         1.878704         1.276991
 O        -2.106451        -0.276935         2.848601
 C        -0.871299        -0.584850         2.097876
 H         0.233693         0.339542        -0.796156
 H        -1.885826         0.565492        -1.116676
 H        -2.633092        -0.611657        -0.097715
 H        -3.483282         1.885213         0.623514
 H        -3.641493         0.885668         2.952538
 H        -2.144514         2.879816         2.813022
 H        -0.905955         1.876499         3.575790
 H        -0.716172         2.718743         0.534180
 H         0.044821        -0.390148         2.653054
 H        -0.883309        -1.506383         1.524508
