19
Iteration:  2128
 O         0.412814         0.057229         0.324377
 C        -0.794467         0.418795         0.830035
 C        -2.091326         0.224326        -0.006363
 C        -2.682577         1.338268         0.964795
 C        -2.663771         0.980594         2.524590
 C        -1.443919         2.079128         2.626865
 C        -1.257320         1.908585         1.142141
 O        -2.052500        -0.399276         2.798598
 C        -0.923468        -0.493338         2.019018
 H         0.605039         0.549708        -0.499627
 H        -1.887538         0.595703        -1.046114
 H        -2.538927        -0.783981        -0.128051
 H        -3.487884         1.962238         0.727132
 H        -3.495979         1.151289         3.174578
 H        -1.873525         3.021761         3.053509
 H        -0.760806         1.712962         3.381850
 H        -0.998686         2.594990         0.381724
 H         0.009871        -0.380066         2.711227
 H        -0.950478        -1.547455         1.634276
