19
Iteration:   895
 O         0.478614         0.159866         0.251266
 C        -0.766515         0.419941         0.861127
 C        -2.151558         0.297104         0.085282
 C        -2.646639         1.399641         0.998145
 C        -2.703507         1.003888         2.422861
 C        -1.464885         1.974073         2.756250
 C        -1.189018         1.854829         1.300374
 O        -2.154553        -0.374337         2.646751
 C        -0.911028        -0.603969         1.984854
 H         0.232318        -0.159118        -0.647822
 H        -1.934988         0.702493        -0.954989
 H        -2.469316        -0.717234         0.162603
 H        -3.444458         2.030571         0.619332
 H        -3.635958         1.082923         2.941768
 H        -1.702777         3.099149         3.000476
 H        -0.683171         1.522182         3.468011
 H        -0.777707         2.590567         0.569090
 H         0.024574        -0.421020         2.647647
 H        -0.694352        -1.557533         1.487303
