19
Iteration:   782
 O         0.416307         0.113137         0.078349
 C        -0.805899         0.333315         0.846775
 C        -2.080986         0.431652        -0.034952
 C        -2.659154         1.423519         0.965743
 C        -2.683436         0.951815         2.496996
 C        -1.518098         2.022306         2.778511
 C        -1.126947         1.855984         1.322049
 O        -2.216486        -0.450610         2.677505
 C        -0.839428        -0.510388         2.060663
 H         0.706115        -0.792951         0.370566
 H        -1.764802         0.938616        -0.945091
 H        -2.491670        -0.598002        -0.036315
 H        -3.517981         1.931812         0.710362
 H        -3.639522         1.003611         3.051904
 H        -1.876915         3.055949         3.006981
 H        -0.771093         1.855002         3.615822
 H        -0.461445         2.589423         0.803907
 H        -0.035387        -0.242298         2.829686
 H        -0.681427        -1.554408         1.821768
