19
Iteration:  2824
 O         0.427632         0.174528         0.136084
 C        -0.838091         0.346166         0.892062
 C        -2.068777         0.256800         0.013919
 C        -2.658192         1.364150         0.880142
 C        -2.609462         0.979305         2.518588
 C        -1.490621         2.000759         2.653608
 C        -1.170082         1.831879         1.281616
 O        -2.131261        -0.337789         2.863404
 C        -0.939656        -0.577685         2.042128
 H         0.456855         1.059083        -0.298781
 H        -1.695509         0.627344        -1.026194
 H        -2.613808        -0.740545        -0.105676
 H        -3.653727         1.809955         0.631184
 H        -3.623804         1.135138         2.919647
 H        -1.891548         3.041589         2.777972
 H        -0.649081         1.802979         3.381416
 H        -0.727973         2.690976         0.746901
 H         0.011417        -0.680725         2.628255
 H        -0.953452        -1.668181         1.539318
