19
Iteration:  4400
 O         0.441988         0.166274         0.129882
 C        -0.805698         0.379989         0.816036
 C        -2.164849         0.096964         0.073956
 C        -2.693089         1.229822         0.928918
 C        -2.592889         0.954278         2.519695
 C        -1.627709         2.085363         2.612701
 C        -1.250264         1.812850         1.093208
 O        -2.048846        -0.268691         2.843081
 C        -0.744949        -0.331874         2.142563
 H         0.595402        -0.781302         0.059129
 H        -2.134059         0.394304        -0.961882
 H        -2.821115        -0.843112         0.237053
 H        -3.465116         1.902527         0.559560
 H        -3.496864         0.914547         3.131286
 H        -2.174807         2.989182         3.027093
 H        -0.743094         1.983952         3.349879
 H        -0.857428         2.643276         0.353572
 H        -0.006420        -0.032484         2.912121
 H        -0.527190        -1.369110         2.079121
