19
Iteration:  4661
 O         0.331793         0.286727         0.037774
 C        -0.787536         0.287467         0.922508
 C        -2.082409         0.044060         0.153357
 C        -2.701263         1.293958         0.806903
 C        -2.701813         1.016732         2.459071
 C        -1.658574         2.148071         2.691117
 C        -1.163698         1.832987         1.171404
 O        -2.012480        -0.303892         2.799452
 C        -0.698897        -0.502605         2.242157
 H         0.084014        -0.504828        -0.499008
 H        -1.815831         0.257327        -0.936908
 H        -2.740453        -0.918264         0.140062
 H        -3.395989         1.971002         0.370428
 H        -3.492866         1.129771         3.128087
 H        -2.246562         3.049554         2.728528
 H        -0.800288         2.173581         3.407687
 H        -0.444164         2.450082         0.556552
 H         0.088815        -0.235599         2.870744
 H        -0.711396        -1.652360         2.043876
