19
Iteration:  1995charge 0 multiplicity 1
 O         0.490331         0.118927         0.252099
 C        -0.807627         0.388522         0.857538
 C        -2.142628         0.262988        -0.005487
 C        -2.652372         1.321640         0.926594
 C        -2.588742         0.899327         2.523220
 C        -1.467520         2.045940         2.636557
 C        -1.246892         1.939759         1.204284
 O        -2.123699        -0.347167         2.831599
 C        -0.955824        -0.590155         2.016728
 H         0.559825         0.638209        -0.579397
 H        -1.980559         0.631923        -1.035420
 H        -2.554572        -0.792327        -0.051044
 H        -3.524490         2.015492         0.689855
 H        -3.614859         0.999456         3.033808
 H        -1.793534         3.139735         2.757588
 H        -0.661685         2.040299         3.380517
 H        -0.850174         2.841333         0.760532
 H        -0.046967        -0.503383         2.585660
 H        -0.955466        -1.695861         1.776510
