19
Iteration:   911charge 0 multiplicity 1
 O         0.416099         0.063614         0.197251
 C        -0.796257         0.361711         0.825264
 C        -2.085565         0.303968        -0.008992
 C        -2.608434         1.428465         0.904610
 C        -2.598839         0.942616         2.538148
 C        -1.606811         2.073149         2.843059
 C        -1.134665         1.927454         1.275505
 O        -2.133862        -0.404333         2.703476
 C        -0.866034        -0.569652         1.995928
 H         0.393701         0.180757        -0.762746
 H        -1.997166         0.687703        -0.993089
 H        -2.730032        -0.605025        -0.133047
 H        -3.456779         2.142135         0.599799
 H        -3.588772         0.913387         3.085541
 H        -2.170331         2.928168         2.989158
 H        -0.933149         1.891297         3.631163
 H        -0.482322         2.700950         0.922652
 H        -0.040820        -0.508834         2.661610
 H        -1.043363        -1.609749         1.670836
