19
Iteration:  2021charge 0 multiplicity 1
 O         0.434504        -0.013888         0.155900
 C        -0.809226         0.346505         0.860746
 C        -2.158866         0.251967         0.078157
 C        -2.680638         1.357681         0.979855
 C        -2.621063         0.984438         2.522215
 C        -1.608944         2.065715         2.737604
 C        -1.155963         1.858904         1.227915
 O        -2.082528        -0.348145         2.614174
 C        -0.839036        -0.443007         2.078398
 H         0.639983         0.611850        -0.566391
 H        -1.981976         0.750763        -0.881543
 H        -2.492113        -0.745100        -0.024007
 H        -3.481421         1.979110         0.722834
 H        -3.517119         0.928526         3.041313
 H        -1.964131         3.168265         2.914516
 H        -1.064779         1.884462         3.707385
 H        -0.538109         2.622393         0.748535
 H         0.002833        -0.129589         2.685301
 H        -0.648476        -1.469298         2.070799
