19
Iteration:  3596charge 0 multiplicity 1
 O         0.371626         0.173783         0.173169
 C        -0.829200         0.319014         0.907112
 C        -2.149864         0.095987        -0.022165
 C        -2.658436         1.334015         0.895433
 C        -2.593762         0.947871         2.490211
 C        -1.529674         2.110684         2.601368
 C        -1.267058         1.873151         1.162033
 O        -2.038303        -0.293494         2.837363
 C        -0.858402        -0.569343         2.166947
 H         0.899328         0.977168         0.231687
 H        -1.832575         0.687190        -0.939423
 H        -2.496781        -0.945501        -0.159123
 H        -3.572438         1.880419         0.640510
 H        -3.594615         1.026650         3.016186
 H        -1.841038         3.132311         2.686344
 H        -0.743581         1.980426         3.316700
 H        -0.661623         2.516489         0.463412
 H         0.119526        -0.149829         2.747623
 H        -0.874568        -1.646604         1.981514
