19
Iteration:  2966charge 0 multiplicity 1
 O         0.449772         0.030907         0.270950
 C        -0.808560         0.462974         0.910207
 C        -2.177127         0.227289        -0.011692
 C        -2.640944         1.387271         0.976483
 C        -2.576809         0.970696         2.521185
 C        -1.535948         2.085096         2.658460
 C        -1.273562         1.887577         1.173466
 O        -2.100663        -0.406162         2.710673
 C        -0.857240        -0.567815         2.017587
 H         0.919612         0.793152        -0.122822
 H        -2.006027         0.689522        -0.948520
 H        -2.676509        -0.737787        -0.009725
 H        -3.461621         2.105357         0.757589
 H        -3.479573         1.088575         3.113068
 H        -2.033105         3.042418         2.987075
 H        -0.619931         1.908452         3.307220
 H        -0.917071         2.781731         0.606896
 H        -0.046425        -0.663682         2.715492
 H        -0.721423        -1.564514         1.504724
