19
Iteration:  4111charge 0 multiplicity 1
 O         0.342202         0.320964        -0.000785
 C        -0.807966         0.270789         0.875649
 C        -2.159878         0.041243         0.176464
 C        -2.654486         1.307670         0.896985
 C        -2.675715         0.994270         2.431066
 C        -1.573855         2.053971         2.636799
 C        -1.176841         1.842507         1.193800
 O        -2.075304        -0.252549         2.876218
 C        -0.734395        -0.490364         2.153641
 H         0.797658        -0.547717        -0.038003
 H        -1.833817         0.003132        -0.926065
 H        -2.559351        -0.937281         0.370403
 H        -3.459446         1.916686         0.486335
 H        -3.653793         0.917959         2.934987
 H        -1.906421         3.136749         2.528302
 H        -0.787114         2.126471         3.463782
 H        -0.686777         2.598679         0.533967
 H        -0.118485        -0.116820         2.868178
 H        -0.566883        -1.537485         1.960146
