19
Iteration:   468charge 0 multiplicity 1
 O         0.510837         0.228048         0.282591
 C        -0.824422         0.295077         0.812599
 C        -2.182714         0.313321         0.018831
 C        -2.703852         1.319509         0.979339
 C        -2.539285         1.024080         2.540824
 C        -1.468459         2.119272         2.743770
 C        -1.222477         1.839028         1.244609
 O        -2.169538        -0.368351         2.654378
 C        -0.946669        -0.679661         1.951145
 H         0.983147        -0.595983         0.417003
 H        -1.938575         0.894882        -0.958150
 H        -2.627930        -0.647458        -0.179962
 H        -3.572281         2.029715         0.640488
 H        -3.433248         1.200302         3.120118
 H        -1.956650         3.102809         2.872094
 H        -0.648501         1.939504         3.324209
 H        -0.649581         2.623145         0.606877
 H        -0.033081        -0.409251         2.592489
 H        -0.830610        -1.773036         1.643366
