19
Iteration:  4719
 O         0.497524         0.242735         0.250574
 C        -0.817860         0.401307         0.774368
 C        -2.144578         0.111630         0.022121
 C        -2.779209         1.150397         0.985780
 C        -2.609016         1.003885         2.484872
 C        -1.426878         2.070978         2.576355
 C        -1.393329         1.862829         1.086214
 O        -2.046462        -0.297177         2.821178
 C        -0.849723        -0.443266         2.120787
 H         0.955423        -0.504785         0.664452
 H        -2.091132         0.525009        -0.971146
 H        -2.625367        -0.927262         0.141631
 H        -3.652579         1.727046         0.705287
 H        -3.436778         1.200914         3.185776
 H        -1.742918         3.057082         2.999040
 H        -0.475536         1.823561         3.007756
 H        -1.077449         2.578969         0.342329
 H        -0.017130        -0.104026         2.669282
 H        -0.704690        -1.506521         2.061932
