19
Iteration:  2346charge 0 multiplicity 1
 O         0.447252         0.015512         0.223560
 C        -0.825567         0.369118         0.809027
 C        -2.142966         0.226487         0.008745
 C        -2.679951         1.367091         0.955465
 C        -2.607722         0.943195         2.490756
 C        -1.541659         2.127254         2.776123
 C        -1.172907         1.952319         1.209726
 O        -2.144951        -0.334131         2.744602
 C        -0.803469        -0.530839         2.073473
 H         0.503315         0.215538        -0.717364
 H        -1.879775         0.670869        -1.017453
 H        -2.581719        -0.786550         0.078434
 H        -3.536283         1.980204         0.635247
 H        -3.691143         0.815684         2.888760
 H        -2.068888         2.996183         3.050016
 H        -0.719006         1.839940         3.438455
 H        -0.658319         2.663093         0.528362
 H         0.052356        -0.250287         2.713594
 H        -0.862932        -1.618771         1.601695
