19
Iteration:  4745charge 0 multiplicity 1
 O         0.364553         0.259977         0.155863
 C        -0.840639         0.381519         0.837253
 C        -2.085847         0.092278         0.041598
 C        -2.722114         1.212635         0.941981
 C        -2.594806         1.014696         2.512566
 C        -1.576342         2.136967         2.550568
 C        -1.260770         1.847082         1.121633
 O        -2.025342        -0.340310         2.893822
 C        -0.815404        -0.546990         2.100529
 H         1.034264        -0.255100         0.616729
 H        -1.809304         0.454548        -0.997144
 H        -2.652023        -0.781747         0.100613
 H        -3.580296         1.915814         0.614002
 H        -3.451408         1.193387         3.241937
 H        -2.080737         3.118282         2.608540
 H        -0.724438         2.259553         3.279726
 H        -0.695489         2.538343         0.461628
 H         0.154439        -0.369319         2.695921
 H        -0.773324        -1.559549         1.871776
