19
Iteration:  3735
 O         0.500388         0.198184         0.341198
 C        -0.872599         0.373505         0.847925
 C        -2.209109         0.094930         0.119993
 C        -2.777684         1.359287         0.924576
 C        -2.585836         0.928551         2.469117
 C        -1.479639         2.080247         2.545344
 C        -1.275954         1.914564         1.114358
 O        -2.035925        -0.356659         2.714521
 C        -0.787962        -0.493910         2.147969
 H         0.501672         0.199450        -0.632358
 H        -2.159333         0.255481        -0.931305
 H        -2.520213        -0.971100         0.287041
 H        -3.705243         1.952277         0.626315
 H        -3.450102         1.009335         3.062032
 H        -1.975251         3.041027         2.933711
 H        -0.588189         2.011395         3.252445
 H        -0.802733         2.568740         0.399264
 H         0.101214        -0.109448         2.759690
 H        -0.861765        -1.620427         1.888546
