19
Iteration:  1790
 O         0.382120         0.087383         0.208328
 C        -0.826119         0.356497         0.827738
 C        -2.112016         0.215569         0.091925
 C        -2.678538         1.400503         0.935269
 C        -2.619671         0.986529         2.442998
 C        -1.534204         2.048518         2.732340
 C        -1.196271         1.829467         1.239646
 O        -2.102290        -0.359105         2.690990
 C        -0.795207        -0.522892         2.098050
 H         0.243721         0.379998        -0.690350
 H        -1.978355         0.737631        -0.894271
 H        -2.667829        -0.739601         0.100883
 H        -3.441844         1.975660         0.426080
 H        -3.633153         1.214838         2.841047
 H        -1.847455         3.105962         2.992976
 H        -0.906729         1.824408         3.587729
 H        -0.562935         2.724134         0.806281
 H         0.069213        -0.189898         2.592113
 H        -0.505893        -1.578199         1.997971
