19
Iteration:   414
 O         0.376162         0.112787         0.105919
 C        -0.780540         0.388336         0.858103
 C        -2.092598         0.249419         0.017185
 C        -2.649999         1.375747         0.948208
 C        -2.687629         0.961317         2.425859
 C        -1.491679         1.977013         2.841255
 C        -1.181996         1.902569         1.307870
 O        -2.123870        -0.287148         2.640247
 C        -0.894849        -0.566376         2.076344
 H         1.226366         0.245232         0.547611
 H        -1.917889         0.466532        -1.058535
 H        -2.477611        -0.712439        -0.016578
 H        -3.486552         2.192234         0.626886
 H        -3.617156         1.025461         3.006320
 H        -1.822099         2.977120         3.137205
 H        -0.751692         1.535887         3.446693
 H        -0.715787         2.801738         0.769530
 H        -0.080032        -0.683235         2.832992
 H        -0.945952        -1.627242         1.626048
