19
Iteration:   168charge 0 multiplicity 1
 O         0.551773         0.317665         0.263727
 C        -0.810700         0.371064         0.785220
 C        -2.228712         0.208556        -0.008075
 C        -2.661821         1.378401         1.007642
 C        -2.536797         1.063611         2.487854
 C        -1.391129         1.954742         2.821742
 C        -1.249476         1.878462         1.253180
 O        -2.177705        -0.346680         2.607869
 C        -1.022320        -0.680633         1.975004
 H         0.969425        -0.515325         0.504093
 H        -2.033992         0.682977        -0.895268
 H        -2.729959        -0.829299        -0.138808
 H        -3.460872         2.115613         0.618372
 H        -3.513617         1.183375         3.081956
 H        -1.703993         2.854175         3.262205
 H        -0.636589         1.562419         3.474622
 H        -0.759415         2.685947         0.690714
 H        -0.105130        -0.806893         2.681477
 H        -1.097487        -1.662551         1.462100
