19
Iteration:  2593charge 0 multiplicity 1
 O         0.437598         0.008134        -0.017387
 C        -0.731981         0.348729         0.816677
 C        -2.017055         0.170315         0.036798
 C        -2.673330         1.408276         0.981856
 C        -2.694914         0.981120         2.488459
 C        -1.685231         2.142431         2.781525
 C        -1.134817         1.843825         1.346059
 O        -2.156985        -0.327637         2.755833
 C        -0.837361        -0.526312         2.079221
 H         0.751145         0.730739        -0.586024
 H        -1.996280         0.270633        -1.133394
 H        -2.564838        -0.857869         0.230632
 H        -3.387570         2.235320         0.664569
 H        -3.574859         1.132180         3.144140
 H        -1.951578         3.211026         2.800133
 H        -1.000307         2.021924         3.680022
 H        -0.740169         2.758061         0.891083
 H         0.026589        -0.301690         2.801777
 H        -0.654917        -1.632722         1.883202
