19
Iteration:  2359
 O         0.498400         0.050606         0.255347
 C        -0.734528         0.410543         0.817574
 C        -2.132783         0.252840         0.017778
 C        -2.610498         1.282750         0.972597
 C        -2.610573         0.998790         2.504994
 C        -1.549627         2.047031         2.668873
 C        -1.244191         1.924476         1.231195
 O        -2.096484        -0.331359         2.789218
 C        -0.961905        -0.533142         1.995081
 H         0.341075         0.129595        -0.716491
 H        -2.279721         0.662090        -1.093592
 H        -2.653934        -0.737236        -0.159688
 H        -3.537183         1.832843         0.753023
 H        -3.481633         1.305640         3.165611
 H        -1.919862         3.067618         2.867326
 H        -0.861439         1.950617         3.483612
 H        -0.789706         2.819782         0.766782
 H        -0.072092        -0.588416         2.623108
 H        -0.936624        -1.667621         1.670281
