19
Iteration:    32
 O         0.560614         0.205486         0.261233
 C        -0.810560         0.395586         0.768820
 C        -2.168848         0.274890         0.048524
 C        -2.684810         1.421054         0.973052
 C        -2.634275         0.944885         2.485557
 C        -1.345898         1.870562         2.736293
 C        -1.210693         1.833432         1.235702
 O        -2.208168        -0.368691         2.694583
 C        -1.033746        -0.539058         1.937434
 H         0.980155         1.102804         0.285483
 H        -2.221730         0.485233        -1.099701
 H        -2.606694        -0.713662         0.238324
 H        -3.466449         2.051511         0.728680
 H        -3.533640         1.072222         3.043317
 H        -1.544475         2.873022         3.193912
 H        -0.564736         1.442241         3.378259
 H        -0.749409         2.702661         0.719676
 H        -0.201994        -0.306179         2.775585
 H        -0.963926        -1.632877         1.775818
