19
Iteration:  2298charge 0 multiplicity 1
 O         0.427117         0.134028         0.047027
 C        -0.719112         0.317962         0.830989
 C        -2.092931         0.156706         0.130314
 C        -2.587927         1.386704         0.937510
 C        -2.657383         1.031795         2.471300
 C        -1.489893         2.074784         2.778240
 C        -1.172314         1.798893         1.230409
 O        -2.224883        -0.373037         2.697585
 C        -0.922054        -0.493212         2.126768
 H         0.540578         0.965392        -0.471131
 H        -2.152725         0.191989        -0.938372
 H        -2.518629        -0.832769         0.349755
 H        -3.409908         1.987702         0.493911
 H        -3.636985         1.009940         2.951579
 H        -1.890757         3.164027         2.931825
 H        -0.835052         1.916185         3.703610
 H        -0.730919         2.581750         0.586306
 H        -0.126456        -0.001986         2.889812
 H        -0.673537        -1.563260         2.079645
