19
Iteration:  2121charge 0 multiplicity 1
 O         0.448368         0.064541         0.346405
 C        -0.794557         0.466007         0.843356
 C        -2.126022         0.227730        -0.054913
 C        -2.692889         1.283985         0.954404
 C        -2.552451         0.997273         2.510527
 C        -1.483566         2.072386         2.701516
 C        -1.252078         1.866627         1.105045
 O        -2.108070        -0.363240         2.846425
 C        -0.906237        -0.544073         1.981771
 H         0.647303         0.456141        -0.538363
 H        -2.073835         0.759332        -1.013880
 H        -2.625374        -0.729810         0.060383
 H        -3.541857         2.000551         0.763503
 H        -3.484931         1.096976         3.083872
 H        -1.973813         3.131691         2.886524
 H        -0.594171         1.627652         3.295730
 H        -1.030893         2.690160         0.360826
 H        -0.145389        -0.334897         2.669284
 H        -0.822678        -1.478913         1.421323
