19
Iteration:  2146
 O         0.445851         0.066092         0.178834
 C        -0.791648         0.328766         0.858197
 C        -2.125870         0.222366         0.046904
 C        -2.696676         1.330933         0.923660
 C        -2.596441         0.988218         2.508549
 C        -1.519348         2.056339         2.721338
 C        -1.232717         1.864299         1.199438
 O        -2.168948        -0.294463         2.727119
 C        -0.792878        -0.536399         2.107349
 H         0.556338         0.740686        -0.528722
 H        -2.033667         0.736826        -0.899748
 H        -2.646734        -0.749267         0.046769
 H        -3.598878         1.922743         0.536910
 H        -3.608206         1.002205         3.024640
 H        -1.907758         3.002988         2.798771
 H        -0.615259         1.846790         3.261462
 H        -0.608119         2.697902         0.751734
 H        -0.106902        -0.133681         2.826726
 H        -0.692459        -1.589384         1.866766
