19
Iteration:   279charge 0 multiplicity 1
 O         0.468452         0.149478         0.211087
 C        -0.822885         0.319086         0.843400
 C        -2.112074         0.284682         0.030057
 C        -2.631687         1.443797         0.967997
 C        -2.662072         0.987189         2.474460
 C        -1.481927         1.948128         2.810703
 C        -1.200066         1.853666         1.230205
 O        -2.168374        -0.338506         2.641588
 C        -0.887512        -0.598238         2.065531
 H         0.468132         0.801273        -0.543229
 H        -1.801179         0.796732        -0.851911
 H        -2.650203        -0.676438        -0.168247
 H        -3.379147         2.192195         0.543864
 H        -3.570301         1.075569         3.088297
 H        -1.813378         2.940075         3.096807
 H        -0.836012         1.465130         3.502833
 H        -0.694029         2.622461         0.541116
 H        -0.055765        -0.496363         2.796914
 H        -0.789446        -1.674124         1.846311
