19
Iteration:  2469
 O         0.340790        -0.000474         0.091130
 C        -0.763564         0.383183         0.851677
 C        -2.164808         0.285540         0.077480
 C        -2.634555         1.375564         0.852795
 C        -2.682465         0.952863         2.482888
 C        -1.578255         2.077596         2.720982
 C        -1.102565         1.861059         1.289588
 O        -2.106345        -0.409634         2.731799
 C        -0.807804        -0.458054         2.164195
 H         0.895963         0.697271        -0.264181
 H        -1.975390         0.707547        -0.984060
 H        -2.551996        -0.748743         0.087422
 H        -3.381699         2.020965         0.407216
 H        -3.555006         1.093953         3.130047
 H        -2.062171         3.048808         2.747648
 H        -1.027747         1.865497         3.573154
 H        -0.687003         2.728908         0.756859
 H         0.066817        -0.096725         2.778960
 H        -0.566356        -1.614907         1.886295
