19
Iteration:  2559charge 0 multiplicity 1
 O         0.433864         0.101666         0.258074
 C        -0.840441         0.348481         0.824591
 C        -2.143357         0.225038         0.028479
 C        -2.707101         1.409410         0.926768
 C        -2.608918         0.968432         2.451042
 C        -1.483151         2.013619         2.688717
 C        -1.197641         1.872819         1.233533
 O        -2.142810        -0.389464         2.679230
 C        -0.811079        -0.468893         2.146529
 H         0.296213         0.350582        -0.685162
 H        -1.805996         0.520634        -1.040968
 H        -2.677180        -0.792038         0.047094
 H        -3.523428         2.146472         0.854758
 H        -3.401949         1.034278         3.170771
 H        -1.819747         3.033157         2.887882
 H        -0.667835         1.711560         3.326917
 H        -0.716032         2.641612         0.610753
 H        -0.082369         0.034276         2.832342
 H        -0.657629        -1.622426         1.967056
