19
Iteration:  3739
 O         0.491865         0.195537         0.345527
 C        -0.883356         0.365901         0.854015
 C        -2.219559         0.094379         0.127900
 C        -2.754636         1.340206         0.870926
 C        -2.573683         0.921164         2.478187
 C        -1.474765         2.082607         2.555916
 C        -1.286242         1.947155         1.121190
 O        -2.038957        -0.365912         2.717044
 C        -0.783278        -0.499003         2.156407
 H         0.526939         0.406036        -0.612977
 H        -2.240532         0.419635        -0.988640
 H        -2.523243        -0.908028         0.395367
 H        -3.676566         1.909795         0.712592
 H        -3.512689         0.995046         3.153708
 H        -1.859857         3.079081         2.790627
 H        -0.611380         2.057303         3.198899
 H        -0.767534         2.486529         0.280150
 H        -0.021094        -0.242114         2.814523
 H        -0.748613        -1.620879         1.848855
