19
Iteration:  3619
 O         0.448369         0.119507         0.133629
 C        -0.780913         0.422919         0.852227
 C        -2.053889         0.140732         0.027395
 C        -2.731213         1.222367         0.996492
 C        -2.590916         1.010046         2.523850
 C        -1.452741         2.079339         2.593161
 C        -1.326060         1.840618         1.113907
 O        -2.197232        -0.323683         2.812584
 C        -0.859838        -0.473626         2.137067
 H         1.190823         0.691994         0.418537
 H        -1.826251         0.632191        -1.007597
 H        -2.378306        -0.904295         0.142870
 H        -3.694993         1.616046         0.662836
 H        -3.558335         1.192679         3.152195
 H        -1.762437         3.079810         2.933357
 H        -0.681714         1.779413         3.287552
 H        -0.967118         2.676992         0.424708
 H         0.130881        -0.058205         2.712651
 H        -0.828639        -1.468361         1.764968
