19
Iteration:   366
 O         0.358751         0.164943         0.043786
 C        -0.772943         0.370258         0.880304
 C        -2.156652         0.255668         0.003847
 C        -2.469427         1.381731         0.946473
 C        -2.625102         0.958927         2.455464
 C        -1.517526         1.991444         2.789667
 C        -1.135570         1.817706         1.304266
 O        -2.247950        -0.387577         2.617861
 C        -0.889168        -0.548920         2.210656
 H         1.006072         0.908006        -0.016860
 H        -2.001904         0.651087        -1.018505
 H        -2.902657        -0.642238        -0.168295
 H        -3.218040         2.151221         0.719087
 H        -3.575374         1.102483         2.972082
 H        -1.985985         2.968351         3.023250
 H        -0.851937         1.654507         3.596250
 H        -0.625465         2.649393         0.787341
 H        -0.103966        -0.129396         2.969868
 H        -0.620170        -1.596492         2.015019
