19
Iteration:  1511
 O         0.429343        -0.017743         0.176906
 C        -0.736265         0.425800         0.848309
 C        -2.132625         0.217130         0.029977
 C        -2.619593         1.365964         0.971042
 C        -2.690297         0.964855         2.467513
 C        -1.566477         2.116845         2.752091
 C        -1.213921         1.904039         1.221996
 O        -2.122225        -0.383199         2.722972
 C        -0.834616        -0.486157         2.073613
 H         0.636413         0.628863        -0.518342
 H        -2.087500         0.463156        -1.024906
 H        -2.485999        -0.797500         0.192615
 H        -3.611508         1.807354         0.612393
 H        -3.679358         0.985069         2.939784
 H        -1.869369         3.183723         3.002357
 H        -0.850475         1.956741         3.636270
 H        -0.788547         2.704308         0.609199
 H         0.152088        -0.292202         2.723647
 H        -0.701584        -1.448546         1.619367
