19
Iteration:  3890
 O         0.423093         0.384287         0.201040
 C        -0.846168         0.339454         0.915589
 C        -2.132678         0.090205         0.097417
 C        -2.653201         1.235255         0.891260
 C        -2.604234         0.948899         2.437121
 C        -1.485701         2.165550         2.567478
 C        -1.280675         1.808144         1.119716
 O        -2.056981        -0.258323         2.864826
 C        -0.847665        -0.622650         2.127232
 H         0.603257        -0.276398        -0.500965
 H        -2.001679         0.210701        -0.988857
 H        -2.819619        -0.754111         0.360499
 H        -3.545464         1.727668         0.467340
 H        -3.400349         1.171003         3.172462
 H        -2.105850         3.078218         2.771869
 H        -0.605476         1.821810         3.139947
 H        -0.852682         2.460686         0.387423
 H        -0.015498        -0.527617         2.932137
 H        -0.805315        -1.606951         1.902984
