19
Iteration:  4095
 O         0.270670         0.235205         0.046633
 C        -0.793020         0.392098         0.921145
 C        -2.133269         0.020324         0.190871
 C        -2.611061         1.303298         0.839873
 C        -2.614840         1.009017         2.431281
 C        -1.639838         2.162147         2.647140
 C        -1.201712         1.847426         1.161946
 O        -1.999712        -0.347777         2.747676
 C        -0.727823        -0.451019         2.187171
 H         0.569715        -0.708796         0.140476
 H        -2.143175         0.232274        -0.828886
 H        -2.754013        -0.812381         0.631817
 H        -3.470597         1.883829         0.439782
 H        -3.549802         1.077984         2.992028
 H        -2.166104         3.039758         2.962223
 H        -0.986631         1.895941         3.431895
 H        -0.557062         2.526120         0.620111
 H         0.260864        -0.205878         2.912202
 H        -0.775762        -1.631977         1.989087
