19
Iteration:   728
 O         0.575385         0.332426         0.236992
 C        -0.782384         0.353836         0.786638
 C        -2.199713         0.195254         0.036029
 C        -2.572764         1.387782         0.976843
 C        -2.680371         0.977403         2.498951
 C        -1.392952         1.980408         2.803215
 C        -1.186012         1.844397         1.231759
 O        -2.234665        -0.340550         2.675840
 C        -1.012925        -0.621914         1.983519
 H         0.577472        -0.514466        -0.308058
 H        -2.128273         0.501522        -0.967857
 H        -2.654103        -0.727402         0.398295
 H        -3.186278         2.128451         0.632478
 H        -3.650517         1.109950         2.998237
 H        -1.754803         3.066302         3.041850
 H        -0.534457         1.462743         3.397392
 H        -0.769554         2.717436         0.638663
 H        -0.170291        -0.539189         2.785630
 H        -1.151288        -1.586857         1.537173
