19
Iteration:  2101
 O         0.569154         0.163045         0.315359
 C        -0.804333         0.291504         0.731130
 C        -2.191228         0.202320        -0.026899
 C        -2.687972         1.314628         1.000334
 C        -2.645429         0.992661         2.547793
 C        -1.426838         2.120802         2.641756
 C        -1.238517         1.904256         1.218403
 O        -2.092351        -0.337044         2.780450
 C        -0.961734        -0.583028         2.015863
 H         0.711597         0.381577        -0.619759
 H        -2.132594         0.717440        -0.993525
 H        -2.633302        -0.823643        -0.031277
 H        -3.698188         1.832686         0.745329
 H        -3.535137         1.206261         3.228476
 H        -2.099549         2.929151         2.786084
 H        -0.647191         1.841369         3.390657
 H        -0.739080         2.684016         0.519840
 H        -0.073230        -0.382425         2.637071
 H        -1.199177        -1.636077         1.833519
