19
Iteration:  3966
 O         0.372667         0.159089         0.071490
 C        -0.859023         0.388419         0.910879
 C        -2.106594         0.119152         0.138855
 C        -2.690274         1.310621         0.876413
 C        -2.625206         0.969887         2.478141
 C        -1.556197         2.033912         2.627065
 C        -1.292863         1.828058         1.135934
 O        -2.072023        -0.332145         2.749680
 C        -0.707689        -0.364982         2.207762
 H         0.812968        -0.684352         0.226601
 H        -2.064533         0.452847        -0.915918
 H        -2.475817        -0.959809         0.045254
 H        -3.501069         2.020158         0.676995
 H        -3.552372         0.991357         3.080425
 H        -2.032664         3.078156         2.786412
 H        -0.625369         1.950326         3.292863
 H        -0.852951         2.606180         0.588683
 H        -0.007520         0.211442         2.905662
 H        -0.358839        -1.430484         2.229536
