19
Iteration:  2903charge 0 multiplicity 1
 O         0.440635         0.161873         0.134091
 C        -0.781386         0.404198         0.877988
 C        -2.081477         0.177925         0.053781
 C        -2.650599         1.351546         0.922950
 C        -2.612226         0.981245         2.470486
 C        -1.475269         1.999766         2.754415
 C        -1.209382         1.896917         1.286111
 O        -2.212593        -0.344700         2.735729
 C        -0.885915        -0.568561         2.081347
 H         0.390488         0.580590        -0.758712
 H        -2.037362         0.637810        -0.976458
 H        -2.571047        -0.811950        -0.200163
 H        -3.461391         1.971815         0.622570
 H        -3.576195         1.134060         2.960724
 H        -1.872468         2.926785         3.069259
 H        -0.530717         1.847489         3.286968
 H        -0.634119         2.509155         0.649629
 H        -0.093080        -0.239985         2.811969
 H        -0.807055        -1.664007         1.820204
