19
Iteration:  1683charge 0 multiplicity 1
 O         0.510047         0.215898         0.333110
 C        -0.743739         0.414678         0.762948
 C        -2.128508         0.198726         0.077027
 C        -2.707112         1.287738         1.033995
 C        -2.597329         1.031077         2.545875
 C        -1.388095         2.065251         2.638167
 C        -1.236068         1.815243         1.139768
 O        -2.200074        -0.354538         2.730231
 C        -0.950950        -0.621393         2.005321
 H         0.617231         0.546602        -0.569976
 H        -2.221562         0.484089        -1.030134
 H        -2.504509        -0.837931        -0.067416
 H        -3.462438         1.986629         0.600587
 H        -3.513410         1.237940         3.183778
 H        -2.014221         2.925476         2.916718
 H        -0.520708         1.961116         3.293381
 H        -1.038466         2.657293         0.400646
 H        -0.092126        -0.406931         2.726212
 H        -1.081371        -1.747683         1.667609
