19
Iteration:  1676
 O         0.528246         0.180265         0.288626
 C        -0.782004         0.349885         0.810221
 C        -2.078831         0.181634         0.068410
 C        -2.721292         1.314569         1.019675
 C        -2.647286         1.045658         2.549856
 C        -1.443436         2.103269         2.650628
 C        -1.249630         1.862116         1.163800
 O        -2.191233        -0.370257         2.746415
 C        -0.905752        -0.598971         1.960936
 H         0.498857         0.479308        -0.615093
 H        -2.074148         0.605450        -0.906701
 H        -2.565342        -0.777636         0.132290
 H        -3.419984         1.895942         0.418094
 H        -3.486701         1.069342         3.168519
 H        -1.750240         3.088683         3.025650
 H        -0.554081         1.957171         3.314494
 H        -0.905967         2.636429         0.572817
 H        -0.042350        -0.557365         2.545691
 H        -1.050086        -1.572056         1.671489
