19
Iteration:  2401charge 0 multiplicity 1
 O         0.451028         0.248498         0.292968
 C        -0.874328         0.349108         0.835930
 C        -2.152030         0.263451        -0.009963
 C        -2.640249         1.288927         0.917790
 C        -2.539799         1.038762         2.463002
 C        -1.440631         2.041314         2.686422
 C        -1.183042         1.827006         1.191378
 O        -2.110073        -0.316816         2.784498
 C        -0.973818        -0.674047         2.092647
 H         0.410620         0.541024        -0.641616
 H        -2.044227         0.635293        -1.074062
 H        -2.772564        -0.648349         0.082293
 H        -3.356097         1.976695         0.442659
 H        -3.580556         0.931029         2.990661
 H        -1.938359         2.980395         2.840941
 H        -0.626840         1.822244         3.390976
 H        -0.784336         2.549963         0.436894
 H        -0.081179        -0.529792         2.810773
 H        -0.929004        -1.891315         1.926248
