19
Iteration:  4147
 O         0.507157         0.239354         0.203341
 C        -0.852608         0.378117         0.791071
 C        -2.133016         0.048346         0.075366
 C        -2.772486         1.208250         0.992174
 C        -2.600156         0.947860         2.600836
 C        -1.439914         2.177371         2.584399
 C        -1.315729         1.833588         1.078634
 O        -2.103162        -0.294568         2.816349
 C        -0.786973        -0.449193         2.076966
 H         0.553776        -0.600510        -0.311720
 H        -1.973178         0.502667        -0.904889
 H        -2.635284        -0.958269         0.106843
 H        -3.755429         1.647959         0.669377
 H        -3.514135         1.154249         3.168199
 H        -1.914753         3.165803         2.662078
 H        -0.600861         1.999361         3.310894
 H        -1.052591         2.695889         0.390337
 H        -0.003367        -0.085263         2.724414
 H        -0.651718        -1.479709         2.042317
