19
Iteration:  1003
 O         0.475590         0.335339         0.230489
 C        -0.769488         0.343628         0.826425
 C        -2.171966         0.233503         0.123679
 C        -2.728123         1.349162         1.016064
 C        -2.558311         1.009484         2.535207
 C        -1.390050         2.015177         2.688429
 C        -1.202580         1.775487         1.171882
 O        -2.228781        -0.374687         2.583386
 C        -0.917434        -0.597281         2.040266
 H         0.926864        -0.519517         0.459551
 H        -2.255569         0.613994        -0.964500
 H        -2.527474        -0.798892        -0.081188
 H        -3.447998         2.043019         0.708843
 H        -3.403324         1.167256         3.193956
 H        -1.870559         3.045387         2.774937
 H        -0.539915         1.867545         3.406842
 H        -0.628766         2.638452         0.595439
 H        -0.202293        -0.451921         2.854431
 H        -1.044915        -1.634116         1.763438
