19
Iteration:  4799charge 0 multiplicity 1
 O         0.284252         0.045626         0.022744
 C        -0.772322         0.420035         0.858133
 C        -2.046197         0.103513         0.121653
 C        -2.681622         1.292203         0.880888
 C        -2.625109         0.906732         2.450969
 C        -1.597246         2.071109         2.705504
 C        -1.272227         1.892915         1.180363
 O        -2.070260        -0.285179         2.742448
 C        -0.736686        -0.387523         2.254439
 H         1.092337         0.579206         0.162982
 H        -1.960188         0.140858        -1.018685
 H        -2.625543        -0.772572         0.342291
 H        -3.511810         1.967397         0.380432
 H        -3.609780         0.866246         3.093451
 H        -1.999319         3.110195         2.804605
 H        -0.701454         1.945679         3.390459
 H        -0.599036         2.598127         0.658144
 H        -0.050914         0.085361         2.918963
 H        -0.585311        -1.395007         2.156109
