19
Iteration:  4110charge 0 multiplicity 1
 O         0.334530         0.315934         0.000927
 C        -0.803948         0.272689         0.882735
 C        -2.158491         0.038708         0.183532
 C        -2.652865         1.308848         0.889798
 C        -2.676294         0.998053         2.422913
 C        -1.572752         2.054806         2.633088
 C        -1.180856         1.851751         1.202599
 O        -2.071172        -0.258952         2.873641
 C        -0.739660        -0.489009         2.153996
 H         0.790308        -0.539791        -0.034846
 H        -1.850377        -0.012961        -0.921408
 H        -2.564581        -0.943259         0.352467
 H        -3.444529         1.928011         0.495318
 H        -3.654773         0.935793         2.926076
 H        -1.929745         3.129450         2.529999
 H        -0.779140         2.126166         3.436863
 H        -0.678571         2.590954         0.580057
 H        -0.049959        -0.100235         2.857097
 H        -0.536248        -1.560071         1.923424
