19
Iteration:  3699charge 0 multiplicity 1
 O         0.476748         0.222789         0.004598
 C        -0.746592         0.364432         0.787853
 C        -2.047959         0.084188         0.005994
 C        -2.704934         1.233598         1.013259
 C        -2.699331         0.968546         2.505377
 C        -1.562632         2.147814         2.687630
 C        -1.199324         1.820893         1.200225
 O        -2.137638        -0.275228         2.842446
 C        -0.887107        -0.453919         2.180774
 H         0.485369        -0.744077        -0.166749
 H        -1.926839         0.517274        -0.986005
 H        -2.355756        -0.997637         0.085967
 H        -3.471737         1.849268         0.551995
 H        -3.654674         0.979430         3.027996
 H        -2.162013         3.060300         2.818862
 H        -0.768769         1.954235         3.439743
 H        -0.748749         2.716857         0.732225
 H         0.106089        -0.122693         2.820811
 H        -0.652101        -1.467610         2.108726
