19
Iteration:  4482charge 0 multiplicity 1
 O         0.525217         0.152894         0.099590
 C        -0.774477         0.332347         0.764509
 C        -2.172315         0.025450         0.081838
 C        -2.756784         1.258183         0.951328
 C        -2.628509         1.050568         2.558977
 C        -1.552420         2.101682         2.703873
 C        -1.358834         1.814685         1.114265
 O        -2.018117        -0.289869         2.768410
 C        -0.776986        -0.334904         2.168630
 H         0.598303        -0.837105         0.010804
 H        -2.004431         0.417481        -1.034963
 H        -2.812508        -0.859384         0.095818
 H        -3.597448         1.915463         0.575673
 H        -3.630959         0.979389         3.094227
 H        -1.982551         3.131615         2.800710
 H        -0.769030         1.937279         3.477065
 H        -1.034474         2.635796         0.489126
 H        -0.150691         0.206746         2.865339
 H        -0.377082        -1.422633         2.176273
