19
Iteration:  1566
 O         0.504911         0.253282         0.357524
 C        -0.803746         0.300086         0.785247
 C        -2.163763         0.176229         0.018323
 C        -2.637324         1.328253         0.974664
 C        -2.569613         1.017396         2.514340
 C        -1.458615         2.011239         2.665331
 C        -1.251564         1.854921         1.127448
 O        -2.135490        -0.283488         2.785458
 C        -0.979860        -0.656327         1.999444
 H         0.633526         0.616307        -0.559005
 H        -2.076385         0.532243        -1.003246
 H        -2.790383        -0.701071        -0.056583
 H        -3.582241         1.881824         0.663934
 H        -3.478883         1.208819         3.047432
 H        -1.860122         3.098044         2.969763
 H        -0.496204         1.791290         3.303367
 H        -0.832665         2.674916         0.595054
 H         0.044495        -0.410945         2.595114
 H        -0.993592        -1.705152         1.711130
