19
Iteration:  1966
 O         0.509636         0.272237         0.301468
 C        -0.788150         0.332376         0.846466
 C        -2.160757         0.169492        -0.006939
 C        -2.677473         1.251560         0.956581
 C        -2.645455         1.043800         2.541890
 C        -1.375153         2.036456         2.711390
 C        -1.270144         1.799281         1.194276
 O        -2.174869        -0.248448         2.778332
 C        -0.922113        -0.658372         1.945490
 H         0.580985         0.609967        -0.584017
 H        -2.093145         0.613685        -0.999480
 H        -2.505410        -0.815555        -0.139551
 H        -3.315943         1.998810         0.640765
 H        -3.561151         1.122137         3.033881
 H        -1.536638         3.146558         2.822678
 H        -0.626586         1.645415         3.433039
 H        -1.046114         2.685129         0.598862
 H         0.035480        -0.556017         2.614977
 H        -1.114620        -1.639279         1.605175
