19
Iteration:  4731charge 0 multiplicity 1
 O         0.378364         0.265186         0.235903
 C        -0.833224         0.367288         0.882263
 C        -2.154409         0.102463         0.045879
 C        -2.698490         1.212174         0.948317
 C        -2.566458         0.929134         2.541023
 C        -1.445259         2.140477         2.573429
 C        -1.317962         1.842478         1.011866
 O        -2.037665        -0.283876         2.842528
 C        -0.826214        -0.458053         2.109841
 H         0.894017        -0.406631         0.755316
 H        -2.123656         0.614651        -0.924211
 H        -2.289053        -0.967697        -0.284100
 H        -3.702803         1.661379         0.635744
 H        -3.639573         0.902766         2.984713
 H        -1.881692         3.155655         2.858511
 H        -0.693636         1.806400         3.270547
 H        -0.982027         2.489459         0.227210
 H        -0.020696        -0.260726         2.741432
 H        -0.805155        -1.433005         1.694907
