19
Iteration:  2267charge 0 multiplicity 1
 O         0.460788         0.140738         0.296733
 C        -0.780650         0.352451         0.864195
 C        -2.161110         0.218483         0.089006
 C        -2.736959         1.376893         0.949511
 C        -2.585965         1.014091         2.441557
 C        -1.460046         2.059395         2.684153
 C        -1.200046         1.829317         1.134161
 O        -2.086581        -0.321497         2.760896
 C        -0.936273        -0.590499         2.044634
 H         0.623794         0.713344        -0.455560
 H        -2.089330         0.603318        -0.892846
 H        -2.549828        -0.805893         0.012571
 H        -3.681975         1.831531         0.601073
 H        -3.579352         0.938251         2.925299
 H        -1.914780         3.032149         2.798962
 H        -0.784321         1.791944         3.522202
 H        -0.681079         2.551181         0.471421
 H        -0.025242        -0.422888         2.603971
 H        -0.867232        -1.577699         1.575946
