19
Iteration:  1653
 O         0.409601         0.074844         0.175397
 C        -0.738678         0.404308         0.849854
 C        -2.131173         0.223731         0.007517
 C        -2.649565         1.359773         0.919046
 C        -2.614409         0.966499         2.427672
 C        -1.594213         2.029862         2.752235
 C        -1.176966         1.872348         1.246988
 O        -2.078989        -0.277655         2.763213
 C        -0.855979        -0.562972         2.101508
 H         0.343832         0.373200        -0.763811
 H        -1.958184         0.515584        -1.015093
 H        -2.643840        -0.729614         0.096770
 H        -3.478412         2.035592         0.582990
 H        -3.555447         0.944055         2.906203
 H        -2.148920         2.890797         3.083891
 H        -0.856529         1.975639         3.583234
 H        -0.776117         2.662887         0.736157
 H        -0.066253        -0.462699         2.768626
 H        -0.909897        -1.598398         1.910266
