19
Iteration:  2976charge 0 multiplicity 1
 O         0.439674         0.021208         0.226725
 C        -0.748390         0.408069         0.829742
 C        -2.138683         0.293089         0.089853
 C        -2.729205         1.319828         0.980251
 C        -2.647267         0.904850         2.517459
 C        -1.452402         2.056374         2.685737
 C        -1.231391         1.922460         1.196217
 O        -2.171853        -0.368212         2.682139
 C        -0.829262        -0.494443         2.063523
 H         0.810632         0.725365        -0.321175
 H        -1.956203         0.636541        -0.901569
 H        -2.447722        -0.704669        -0.140145
 H        -3.498578         2.026939         0.576529
 H        -3.555933         0.952652         3.121360
 H        -2.035558         2.994700         2.964820
 H        -0.626640         1.924223         3.442911
 H        -0.735453         2.701053         0.512573
 H         0.005494        -0.238346         2.814115
 H        -0.826999        -1.512944         1.601307
