19
Iteration:  3486
 O         0.502343         0.225078         0.188087
 C        -0.734286         0.291235         0.816554
 C        -2.153031         0.111000         0.032691
 C        -2.685015         1.306443         1.002187
 C        -2.673340         1.018937         2.546419
 C        -1.603890         2.109182         2.664257
 C        -1.204470         1.829239         1.212043
 O        -2.081748        -0.236961         2.768441
 C        -0.877667        -0.529272         2.003887
 H         0.853177        -0.689353         0.036103
 H        -2.060982         0.480841        -1.025214
 H        -2.479991        -0.971898         0.163837
 H        -3.486432         1.994352         0.734047
 H        -3.542096         0.992068         3.203182
 H        -2.066118         3.080429         2.609583
 H        -0.857220         1.916611         3.422221
 H        -0.816102         2.644558         0.598792
 H         0.046763        -0.525443         2.492359
 H        -1.034845        -1.477512         1.689018
