19
Iteration:  3526
 O         0.403307         0.115943         0.223418
 C        -0.840922         0.409443         0.840073
 C        -2.084228         0.164830         0.063429
 C        -2.687653         1.304312         0.928844
 C        -2.613913         0.930838         2.491273
 C        -1.499129         2.007920         2.572290
 C        -1.238321         1.915849         1.103931
 O        -2.111678        -0.374966         2.745255
 C        -0.807878        -0.418852         2.265081
 H         0.198975         0.324014        -0.703330
 H        -1.762297         0.606916        -0.863193
 H        -2.689511        -0.743331         0.013790
 H        -3.481370         2.034267         0.635606
 H        -3.544485         1.100197         2.967102
 H        -1.949873         2.969239         2.892085
 H        -0.616871         1.860423         3.225965
 H        -0.731700         2.714467         0.620327
 H        -0.130841        -0.048338         3.156135
 H        -0.591184        -1.566294         1.942977
