19
Iteration:  1126
 O         0.460473         0.245399         0.264984
 C        -0.825551         0.340138         0.869839
 C        -2.124151         0.187614         0.005776
 C        -2.696706         1.306579         0.901174
 C        -2.516343         0.994201         2.481787
 C        -1.374074         1.996067         2.735912
 C        -1.273961         1.834808         1.235757
 O        -2.166525        -0.272957         2.698266
 C        -0.976115        -0.600682         2.074573
 H         0.559978         0.922140        -0.457123
 H        -1.955908         0.548277        -1.115470
 H        -2.602403        -0.792252        -0.016730
 H        -3.593641         1.873620         0.689694
 H        -3.488140         1.116179         3.037780
 H        -1.756723         3.007668         3.065265
 H        -0.511913         1.438391         3.164410
 H        -0.691433         2.736588         0.619192
 H        -0.157443        -0.610811         2.837438
 H        -0.961315        -1.616421         1.673650
