19
Iteration:  1011
 O         0.486264         0.311035         0.253036
 C        -0.798872         0.326769         0.810795
 C        -2.176318         0.230268         0.004447
 C        -2.668019         1.370129         0.993005
 C        -2.607059         0.985627         2.570678
 C        -1.398886         2.068023         2.733540
 C        -1.244005         1.760785         1.211024
 O        -2.198451        -0.328665         2.630606
 C        -0.892492        -0.610283         2.013492
 H         0.821328        -0.616705         0.068451
 H        -2.077458         0.740875        -0.902331
 H        -2.558602        -0.839959         0.085297
 H        -3.449257         2.090078         0.736989
 H        -3.514038         1.064757         3.132709
 H        -1.760350         3.014276         2.827649
 H        -0.606703         1.896493         3.393083
 H        -0.891488         2.469840         0.418690
 H        -0.225156        -0.548992         2.903839
 H        -0.814737        -1.669901         1.714121
