19
Iteration:  1536
 O         0.472253         0.160634         0.310052
 C        -0.772014         0.357031         0.803286
 C        -2.097895         0.275395        -0.081907
 C        -2.692739         1.303406         0.969479
 C        -2.612951         0.986084         2.554083
 C        -1.463074         2.041956         2.664049
 C        -1.271468         1.800155         1.167427
 O        -2.119782        -0.293819         2.834663
 C        -0.919648        -0.633615         2.035532
 H         0.579445         0.609209        -0.525196
 H        -1.942646         0.773913        -1.056403
 H        -2.715354        -0.649643        -0.200624
 H        -3.601807         1.802752         0.709013
 H        -3.507084         1.153550         3.102921
 H        -1.839270         2.985219         2.685794
 H        -0.696185         2.202485         3.322592
 H        -0.851572         2.735119         0.635489
 H        -0.012941        -0.557867         2.596823
 H        -0.989434        -1.608918         1.645489
