19
Iteration:   709charge 0 multiplicity 1
 O         0.474897         0.208149         0.260136
 C        -0.772042         0.338974         0.840992
 C        -2.095109         0.320642         0.005678
 C        -2.748873         1.372450         0.964751
 C        -2.598383         1.012223         2.492768
 C        -1.500967         1.987872         2.725039
 C        -1.128611         1.858024         1.255952
 O        -2.187112        -0.368008         2.697496
 C        -0.919006        -0.615585         1.996195
 H         0.297855        -0.353505        -0.526555
 H        -1.945191         0.927535        -0.916883
 H        -2.596289        -0.595880        -0.140941
 H        -3.598162         2.023834         0.663800
 H        -3.403053         1.020943         3.127474
 H        -1.837832         3.025363         3.002088
 H        -0.794451         1.695263         3.507180
 H        -0.389538         2.535884         0.779786
 H        -0.118982        -0.474904         2.703970
 H        -0.960376        -1.653493         1.666737
