19
Iteration:  2566charge 0 multiplicity 1
 O         0.425191         0.079538         0.193630
 C        -0.798268         0.327930         0.846572
 C        -2.125000         0.196755         0.067447
 C        -2.659035         1.385317         0.977118
 C        -2.611697         0.931594         2.424260
 C        -1.548995         2.008612         2.723393
 C        -1.176053         1.841660         1.226879
 O        -2.118517        -0.328548         2.676910
 C        -0.879556        -0.431893         2.122785
 H         0.361447         0.450222        -0.697814
 H        -1.960183         0.707171        -0.837333
 H        -2.770651        -0.611741        -0.068575
 H        -3.402412         2.110109         0.662653
 H        -3.462312         1.115995         3.082287
 H        -1.903817         3.027530         2.909518
 H        -0.744523         1.782838         3.407553
 H        -0.729513         2.704196         0.699647
 H        -0.112759        -0.091604         2.790628
 H        -0.496783        -1.454265         2.024571
