19
Iteration:  3745charge 0 multiplicity 1
 O         0.459286         0.191797         0.335862
 C        -0.830455         0.370143         0.862441
 C        -2.221097         0.119430         0.114033
 C        -2.689436         1.281631         0.851525
 C        -2.568443         0.949545         2.509268
 C        -1.479922         2.111709         2.599560
 C        -1.312743         1.921628         1.067318
 O        -2.079258        -0.376097         2.743127
 C        -0.801469        -0.512165         2.116363
 H         0.531948         0.727554        -0.471364
 H        -2.272255         0.385323        -0.893561
 H        -2.755672        -0.830547         0.408565
 H        -3.652927         1.831616         0.709542
 H        -3.401541         1.005648         3.127215
 H        -1.892315         3.163751         2.640893
 H        -0.534356         1.957836         3.212498
 H        -0.760052         2.521750         0.358764
 H         0.022657        -0.326704         2.969261
 H        -0.420630        -1.507818         1.795395
