19
Iteration:  3040
 O         0.409719         0.248338         0.147801
 C        -0.781574         0.369897         0.920170
 C        -2.118632         0.129830         0.103336
 C        -2.615839         1.364644         0.927781
 C        -2.642667         0.986697         2.431280
 C        -1.632855         2.147764         2.730678
 C        -1.092695         1.900767         1.279044
 O        -2.110853        -0.356275         2.729693
 C        -0.845296        -0.655779         2.010067
 H         0.346152        -0.470566        -0.487559
 H        -2.079311         0.480792        -0.965400
 H        -2.685536        -0.821441         0.102407
 H        -3.225545         2.222201         0.581255
 H        -3.559366         1.077803         3.008379
 H        -2.173910         3.111895         2.897552
 H        -0.996121         2.005819         3.592751
 H        -0.519105         2.643921         0.654628
 H         0.022439        -0.929487         2.701118
 H        -1.050002        -1.627288         1.611974
