19
Iteration:  2301
 O         0.430365         0.125138         0.039245
 C        -0.723645         0.344849         0.811367
 C        -2.110851         0.141486         0.140129
 C        -2.612461         1.380721         0.943320
 C        -2.688627         1.001471         2.433917
 C        -1.486556         2.082216         2.817537
 C        -1.130591         1.806398         1.211825
 O        -2.211215        -0.376812         2.692163
 C        -0.899613        -0.475904         2.140772
 H         0.512383         0.943471        -0.453455
 H        -2.081582         0.359432        -0.929045
 H        -2.546601        -0.818495         0.397421
 H        -3.439727         2.004179         0.594365
 H        -3.665098         1.129260         3.022850
 H        -1.901381         3.049991         2.842954
 H        -0.859926         1.913260         3.696604
 H        -0.564182         2.513715         0.569723
 H        -0.280992         0.010017         2.888570
 H        -0.747923        -1.575463         2.235946
