19
Iteration:  2019
 O         0.428824        -0.000714         0.166212
 C        -0.812269         0.341425         0.861424
 C        -2.148871         0.257043         0.058985
 C        -2.666833         1.364460         0.977655
 C        -2.616786         0.995655         2.519372
 C        -1.599933         2.085547         2.740996
 C        -1.169018         1.854010         1.216307
 O        -2.090065        -0.361835         2.632417
 C        -0.831564        -0.452265         2.087411
 H         0.714339         0.547090        -0.564320
 H        -2.032841         0.746482        -0.919442
 H        -2.516829        -0.756298        -0.038888
 H        -3.493072         1.959943         0.726251
 H        -3.523156         0.919597         3.084265
 H        -2.034370         3.163777         3.024343
 H        -1.070360         1.884574         3.692952
 H        -0.591043         2.551359         0.675597
 H         0.011488        -0.186272         2.599253
 H        -0.638805        -1.502761         1.956419
