19
Iteration:  2225charge 0 multiplicity 1
 O         0.547379         0.057830         0.252285
 C        -0.872342         0.385751         0.795187
 C        -2.090017         0.282543        -0.004479
 C        -2.747991         1.264967         0.967603
 C        -2.588920         1.013443         2.523386
 C        -1.480616         2.057106         2.695538
 C        -1.224278         1.845848         1.185313
 O        -2.145869        -0.348647         2.784892
 C        -0.894387        -0.489959         2.057586
 H         0.490855         0.418559        -0.663850
 H        -2.046169         0.664889        -1.023107
 H        -2.559455        -0.689307        -0.135273
 H        -3.576941         1.874266         0.668267
 H        -3.439642         1.224885         3.199068
 H        -1.847150         2.984254         2.819428
 H        -0.781046         1.960424         3.455799
 H        -0.817629         2.643969         0.556692
 H        -0.068749        -0.322387         2.658207
 H        -0.889953        -1.543810         1.798525
