19
Iteration:   491charge 0 multiplicity 1
 O         0.441961         0.245243         0.177231
 C        -0.773532         0.454087         0.850340
 C        -2.126383         0.212363         0.088379
 C        -2.600722         1.425224         0.921751
 C        -2.669774         0.957530         2.475450
 C        -1.473243         1.927672         2.776398
 C        -1.121986         1.859868         1.227922
 O        -2.177168        -0.359677         2.674053
 C        -0.943620        -0.541776         2.065095
 H         0.424302        -0.672283        -0.205990
 H        -2.144983         0.245663        -1.048302
 H        -2.570601        -0.680479         0.487705
 H        -3.485566         2.161342         0.636177
 H        -3.724412         1.091580         2.790279
 H        -1.841835         2.928906         2.852773
 H        -0.746408         1.630519         3.445138
 H        -0.546173         2.615700         0.608015
 H        -0.092265        -0.521261         2.849347
 H        -0.893387        -1.612381         1.662483
