19
Iteration:   892charge 0 multiplicity 1
 O         0.489994         0.185004         0.252608
 C        -0.736971         0.405436         0.881702
 C        -2.149307         0.296432         0.084949
 C        -2.647866         1.403336         0.992061
 C        -2.694465         0.998036         2.446492
 C        -1.445730         1.955090         2.746246
 C        -1.206384         1.840413         1.274114
 O        -2.175870        -0.360310         2.635209
 C        -0.914680        -0.584274         1.981518
 H         0.205522        -0.169550        -0.583853
 H        -2.032147         0.636665        -0.960954
 H        -2.521236        -0.786313         0.129322
 H        -3.425438         2.034545         0.750299
 H        -3.624698         1.029948         2.968275
 H        -1.652282         3.022167         2.959281
 H        -0.698779         1.461615         3.387335
 H        -0.771273         2.675408         0.604046
 H        -0.066254        -0.396533         2.645219
 H        -0.791293        -1.586793         1.577943
