19
Iteration:  2633
 O         0.449179         0.149285         0.222291
 C        -0.817758         0.385309         0.856978
 C        -2.181897         0.179579         0.014539
 C        -2.691558         1.363367         0.944805
 C        -2.629949         1.014828         2.519100
 C        -1.436723         2.050052         2.638377
 C        -1.221997         1.797706         1.210769
 O        -2.110971        -0.374268         2.742551
 C        -0.905225        -0.534990         2.048844
 H         0.838642         1.030345         0.105314
 H        -2.044518         0.625428        -0.918933
 H        -2.613502        -0.770413         0.031385
 H        -3.402680         2.135267         0.701777
 H        -3.559545         0.955672         3.033728
 H        -1.920921         3.034470         2.805354
 H        -0.729514         1.767432         3.400708
 H        -0.575227         2.456077         0.577007
 H        -0.103037        -0.212333         2.728944
 H        -0.580965        -1.613747         1.858445
