19
Iteration:   359charge 0 multiplicity 1
 O         0.352117         0.165213         0.088123
 C        -0.790704         0.314939         0.868791
 C        -2.114907         0.291739         0.035325
 C        -2.554192         1.387284         0.947081
 C        -2.665972         1.002542         2.445937
 C        -1.525540         1.943862         2.798065
 C        -1.116880         1.816120         1.264864
 O        -2.228520        -0.392030         2.661708
 C        -0.830434        -0.519476         2.133196
 H         0.949133         0.954988         0.040933
 H        -1.819695         0.695770        -0.956428
 H        -2.675099        -0.561586        -0.065390
 H        -3.372910         2.104882         0.501611
 H        -3.579613         1.130129         2.988018
 H        -1.762934         2.963370         3.121308
 H        -0.834649         1.639160         3.545590
 H        -0.567727         2.587280         0.629115
 H        -0.214946        -0.248563         2.933478
 H        -0.819950        -1.603590         1.902107
