19
Iteration:  2357charge 0 multiplicity 1
 O         0.491192         0.040856         0.255499
 C        -0.736494         0.404079         0.814497
 C        -2.151373         0.241021         0.006074
 C        -2.615638         1.296157         0.972532
 C        -2.600878         0.991303         2.499950
 C        -1.550318         2.067976         2.673873
 C        -1.231428         1.939748         1.239033
 O        -2.105891        -0.337409         2.786078
 C        -0.928769        -0.521104         1.991426
 H         0.307335         0.146424        -0.697864
 H        -2.224341         0.679389        -1.063771
 H        -2.635130        -0.749933        -0.132556
 H        -3.563015         1.794966         0.750417
 H        -3.552337         1.259989         3.123363
 H        -1.967379         3.023230         2.900877
 H        -0.841436         1.883852         3.494654
 H        -0.758801         2.818927         0.761163
 H        -0.073444        -0.580719         2.688522
 H        -0.966866        -1.678120         1.710192
