19
Iteration:  1714charge 0 multiplicity 1
 O         0.453929         0.192244         0.342057
 C        -0.817122         0.328143         0.794221
 C        -2.217123         0.203237         0.058309
 C        -2.713075         1.369854         0.891963
 C        -2.659767         0.997065         2.517089
 C        -1.346080         2.039269         2.653050
 C        -1.228681         1.840442         1.165197
 O        -2.138434        -0.399445         2.739621
 C        -0.875261        -0.564093         2.055731
 H         0.702415         0.980867        -0.197654
 H        -2.025550         0.588243        -1.007713
 H        -2.708109        -0.826336         0.008749
 H        -3.500598         2.059509         0.580762
 H        -3.575626         1.333950         3.107956
 H        -1.812269         2.982218         3.009090
 H        -0.486732         1.644776         3.196145
 H        -0.759268         2.610547         0.347960
 H        -0.001984        -0.092143         2.743672
 H        -0.496606        -1.656000         1.846205
