19
Iteration:  3258
 O         0.396433         0.169188         0.136462
 C        -0.816683         0.275938         0.785813
 C        -2.140046         0.236878        -0.025820
 C        -2.592807         1.348077         0.875945
 C        -2.725302         1.083945         2.451511
 C        -1.535069         2.024907         2.759710
 C        -1.146743         1.797848         1.260145
 O        -2.074232        -0.344923         2.812509
 C        -0.850697        -0.562161         2.141429
 H         0.733395         1.068946         0.092411
 H        -1.840610         0.539175        -1.059765
 H        -2.620306        -0.698240        -0.171060
 H        -3.433002         2.000083         0.660796
 H        -3.706188         1.032191         2.866761
 H        -1.878597         3.042445         2.965287
 H        -1.102966         1.556612         3.602109
 H        -0.619441         2.588836         0.701603
 H         0.007450        -0.184390         2.618580
 H        -0.903510        -1.718373         2.116367
