19
Iteration:  3942charge 0 multiplicity 1
 O         0.425704         0.092157         0.103961
 C        -0.872365         0.385856         0.847684
 C        -2.126270         0.128716         0.070452
 C        -2.704950         1.284689         0.933329
 C        -2.652546         0.967301         2.450087
 C        -1.590564         2.089102         2.687300
 C        -1.250072         1.944157         1.104238
 O        -2.036054        -0.355943         2.789168
 C        -0.703473        -0.346140         2.220011
 H         0.772057        -0.815084         0.107261
 H        -2.059381         0.395370        -0.985087
 H        -2.608419        -0.948197         0.004569
 H        -3.736965         1.708187         0.668255
 H        -3.568928         0.994988         3.047118
 H        -2.031707         3.134351         2.840917
 H        -0.814195         1.891166         3.487310
 H        -0.879439         2.801342         0.545471
 H         0.094946        -0.019714         2.900854
 H        -0.495458        -1.475621         1.895800
