19
Iteration:  3613
 O         0.388419         0.134158         0.157660
 C        -0.820306         0.378355         0.848611
 C        -2.019131         0.197687         0.033836
 C        -2.737469         1.157355         0.933088
 C        -2.575848         1.025771         2.512145
 C        -1.447286         2.101168         2.629373
 C        -1.298559         1.834492         1.084943
 O        -2.168696        -0.309923         2.822483
 C        -0.827054        -0.481546         2.169034
 H         1.026933         0.820563         0.381984
 H        -1.839205         0.533817        -0.943857
 H        -2.549811        -0.775524        -0.060536
 H        -3.588033         1.716074         0.503183
 H        -3.404073         1.155449         3.150237
 H        -1.976306         2.963083         3.114916
 H        -0.570647         1.863598         3.308004
 H        -0.992842         2.630569         0.428965
 H        -0.033154        -0.263330         2.788956
 H        -0.783417        -1.510117         1.675707
