19
Iteration:  1695
 O         0.553393         0.240317         0.350017
 C        -0.855002         0.399680         0.798663
 C        -2.220516         0.175548        -0.012901
 C        -2.653021         1.275637         0.997994
 C        -2.489168         0.960832         2.546372
 C        -1.391851         2.016190         2.617150
 C        -1.237316         1.847592         1.108669
 O        -2.217055        -0.355233         2.716436
 C        -0.994739        -0.541895         2.085353
 H         0.713168         0.759059        -0.447765
 H        -2.230848         0.707031        -0.995003
 H        -2.607924        -0.820732         0.132842
 H        -3.584348         1.866513         0.926332
 H        -3.350349         1.151988         3.187415
 H        -1.729324         3.037648         2.731347
 H        -0.599881         1.926594         3.379998
 H        -0.764232         2.548421         0.421579
 H        -0.168113        -0.459488         2.800987
 H        -0.857987        -1.599017         1.670688
