19
Iteration:  4695charge 0 multiplicity 1
 O         0.528358         0.278813         0.165977
 C        -0.758683         0.418209         0.760960
 C        -2.230235         0.018334         0.136158
 C        -2.711022         1.282510         0.924235
 C        -2.665401         0.985721         2.607330
 C        -1.508283         2.087063         2.606201
 C        -1.254445         1.813590         1.072188
 O        -2.117763        -0.350417         2.799789
 C        -0.823602        -0.385009         2.106945
 H         0.910935        -0.638088         0.162236
 H        -2.164607         0.264478        -0.915900
 H        -2.461067        -1.104218         0.376305
 H        -3.525135         1.801600         0.553152
 H        -3.449297         1.108741         3.283310
 H        -2.073535         3.014249         2.726639
 H        -0.677781         2.086952         3.327033
 H        -0.832749         2.504432         0.322669
 H        -0.006855        -0.114049         2.702267
 H        -0.767008        -1.528311         2.002448
