19
Iteration:  1319charge 0 multiplicity 1
 O         0.422980         0.099332         0.178255
 C        -0.757515         0.351375         0.873459
 C        -2.173724         0.222953         0.012857
 C        -2.631281         1.360086         0.938249
 C        -2.650695         0.979407         2.455015
 C        -1.500605         2.124043         2.748140
 C        -1.249911         1.907735         1.246750
 O        -2.104515        -0.360447         2.677079
 C        -0.800817        -0.585568         2.170835
 H         0.227263         0.084505        -0.798259
 H        -1.899602         0.625624        -0.923745
 H        -2.700349        -0.741434         0.006955
 H        -3.446544         2.007509         0.578778
 H        -3.650750         1.153134         2.895981
 H        -2.152384         2.999121         2.857674
 H        -0.854967         1.938107         3.588797
 H        -0.586819         2.586180         0.792382
 H         0.048530        -0.238737         2.818647
 H        -0.798841        -1.673701         1.719836
