19
Iteration:   373
 O         0.382251         0.138871        -0.008889
 C        -0.722659         0.381058         0.863838
 C        -2.181831         0.222089        -0.028051
 C        -2.530601         1.412413         0.947095
 C        -2.598995         0.913876         2.474866
 C        -1.505757         2.037171         2.781196
 C        -1.079407         1.857936         1.373080
 O        -2.256189        -0.405960         2.581085
 C        -0.940579        -0.552702         2.250881
 H         0.899084         0.939514         0.133705
 H        -2.071809         0.592633        -1.029146
 H        -2.852724        -0.680131         0.125190
 H        -3.204121         2.254130         0.856862
 H        -3.685041         0.964897         2.870895
 H        -2.168565         2.913295         2.801805
 H        -0.768508         1.868946         3.728279
 H        -0.595942         2.670355         0.891608
 H        -0.192031        -0.072787         2.901770
 H        -0.560183        -1.564819         2.157476
