19
Iteration:   742charge 0 multiplicity 1
 O         0.510242         0.366940         0.218391
 C        -0.789879         0.410746         0.799676
 C        -2.158176         0.185850         0.114815
 C        -2.633481         1.408072         0.947403
 C        -2.647648         0.993080         2.517435
 C        -1.385075         1.932666         2.713325
 C        -1.062883         1.806241         1.275915
 O        -2.301600        -0.392610         2.649301
 C        -1.018568        -0.571192         1.977554
 H         0.914772        -0.472894        -0.000964
 H        -2.372978         0.235444        -0.965778
 H        -2.630151        -0.739763         0.209448
 H        -3.548495         2.004108         0.619701
 H        -3.514894         1.200736         3.048761
 H        -1.637476         3.004546         3.017068
 H        -0.640177         1.617163         3.479414
 H        -0.366137         2.505527         0.769771
 H        -0.157817        -0.406444         2.638660
 H        -0.938117        -1.626893         1.706651
