19
Iteration:  2537
 O         0.504561         0.207252         0.363463
 C        -0.795075         0.414646         0.815118
 C        -2.171374         0.168170         0.070509
 C        -2.661302         1.334440         0.910116
 C        -2.558566         0.934462         2.547148
 C        -1.405980         2.046006         2.677854
 C        -1.241803         1.892107         1.111145
 O        -2.183869        -0.402311         2.719473
 C        -0.950671        -0.530501         2.045947
 H         0.434783         0.254353        -0.599483
 H        -2.263722         0.688373        -0.945601
 H        -2.909829        -0.694300         0.157609
 H        -3.427526         1.950607         0.416672
 H        -3.371534         1.168105         3.193042
 H        -1.758175         3.039835         2.968212
 H        -0.469319         1.797029         3.135288
 H        -0.842532         2.670220         0.443479
 H        -0.139611        -0.391880         2.812904
 H        -0.861384        -1.590599         1.529292
