19
Iteration:  1771
 O         0.392763         0.004645         0.017458
 C        -0.703898         0.314661         0.861591
 C        -2.109055         0.260324         0.070781
 C        -2.594526         1.378525         0.960031
 C        -2.697028         0.965531         2.523163
 C        -1.669956         2.100763         2.738182
 C        -1.128775         1.831543         1.289931
 O        -2.108825        -0.328221         2.670516
 C        -0.810706        -0.464806         2.152668
 H         0.467726         0.691707        -0.660052
 H        -1.882917         0.447631        -1.021400
 H        -2.657854        -0.695633         0.211660
 H        -3.372533         2.119729         0.886646
 H        -3.654792         0.969977         3.045128
 H        -2.255870         2.955899         2.844084
 H        -1.020707         2.169614         3.598637
 H        -0.657880         2.699932         0.647208
 H        -0.029292        -0.354589         3.038269
 H        -0.805286        -1.588403         1.803624
