19
Iteration:  2149
 O         0.444710         0.072103         0.155040
 C        -0.746571         0.343567         0.864289
 C        -2.151753         0.214255         0.052864
 C        -2.697886         1.328309         0.917834
 C        -2.593422         1.020383         2.489694
 C        -1.522397         2.058693         2.719753
 C        -1.212888         1.832456         1.222625
 O        -2.167145        -0.309890         2.721457
 C        -0.799329        -0.529614         2.106539
 H         0.550293         0.750283        -0.543898
 H        -2.058699         0.643589        -0.976619
 H        -2.747180        -0.721311         0.017094
 H        -3.545729         1.905541         0.635844
 H        -3.554035         1.125015         3.001490
 H        -2.003559         3.004647         2.904767
 H        -0.757084         1.843386         3.441725
 H        -0.697429         2.621983         0.680650
 H        -0.179322        -0.091925         2.966316
 H        -0.652759        -1.615114         1.928205
