19
Iteration:  2870
 O         0.461704        -0.050269         0.181192
 C        -0.740034         0.361127         0.779673
 C        -2.170642         0.280162         0.145441
 C        -2.692762         1.470918         1.001470
 C        -2.656076         0.932386         2.481651
 C        -1.600324         2.022813         2.786616
 C        -1.202451         1.935151         1.281763
 O        -2.134043        -0.407856         2.550380
 C        -0.790648        -0.429255         2.057571
 H         0.594388         0.152289        -0.761898
 H        -2.226574         0.749089        -0.935859
 H        -2.686601        -0.776404         0.276280
 H        -3.377347         2.201898         0.654701
 H        -3.547444         0.928410         3.122213
 H        -2.120434         2.933315         2.896181
 H        -0.800859         1.922631         3.535250
 H        -0.507736         2.519661         0.721427
 H         0.013624         0.135963         2.746221
 H        -0.248188        -1.440698         2.187930
