19
Iteration:   592
 O         0.479098         0.167094         0.315849
 C        -0.815893         0.330473         0.769118
 C        -2.110249         0.245670        -0.058474
 C        -2.707276         1.333108         1.014545
 C        -2.600350         1.022835         2.586672
 C        -1.417148         1.989518         2.710587
 C        -1.155611         1.836888         1.139628
 O        -2.182878        -0.355101         2.696883
 C        -0.980857        -0.575955         2.017399
 H         0.736436         1.061515         0.122966
 H        -2.036191         0.988324        -0.844241
 H        -2.623703        -0.706198        -0.358992
 H        -3.596568         1.884769         0.582417
 H        -3.502041         1.206106         3.305471
 H        -1.586494         2.978247         2.990038
 H        -0.757301         1.659863         3.514894
 H        -0.640682         2.650130         0.656886
 H        -0.094249        -0.423023         2.673321
 H        -1.088447        -1.604854         1.563519
