19
Iteration:  3400charge 0 multiplicity 1
 O         0.463804         0.059740         0.206465
 C        -0.745994         0.375787         0.848429
 C        -2.168369         0.210551         0.077272
 C        -2.667317         1.365811         0.899535
 C        -2.614814         0.968954         2.473783
 C        -1.543077         2.104613         2.733836
 C        -1.233672         1.871408         1.197426
 O        -2.123097        -0.382482         2.682943
 C        -0.842191        -0.486546         2.114184
 H         0.666437         0.561539        -0.608293
 H        -2.241973         0.287269        -1.022664
 H        -2.542649        -0.799388         0.234913
 H        -3.453473         2.014050         0.544041
 H        -3.526590         1.005062         3.094915
 H        -2.042224         3.095055         3.004073
 H        -0.820335         1.916176         3.577945
 H        -0.869831         2.780263         0.676687
 H         0.053028        -0.139664         2.774135
 H        -0.783552        -1.604128         1.922060
