19
Iteration:  2781
 O         0.527620         0.168315         0.361110
 C        -0.809603         0.445196         0.791894
 C        -2.234773         0.194393         0.110500
 C        -2.722012         1.307940         0.970283
 C        -2.634523         0.945390         2.597156
 C        -1.363783         2.011686         2.688035
 C        -1.181460         1.842661         1.114179
 O        -2.171633        -0.358320         2.634657
 C        -0.932067        -0.493421         1.964650
 H         0.827675         0.778770        -0.349088
 H        -2.264007         0.420670        -1.023999
 H        -2.811611        -0.780997         0.075814
 H        -3.557094         1.900704         0.546501
 H        -3.404102         1.035440         3.400403
 H        -1.790913         3.013155         2.780884
 H        -0.588811         2.025532         3.471369
 H        -0.548055         2.506175         0.558849
 H        -0.069928        -0.428242         2.729648
 H        -0.848684        -1.594318         1.603330
