19
Iteration:  3935charge 0 multiplicity 1
 O         0.468168         0.123208         0.096115
 C        -0.795923         0.381085         0.832626
 C        -2.147806         0.099378         0.085418
 C        -2.701051         1.255032         0.921327
 C        -2.620247         0.992394         2.496643
 C        -1.610268         2.112969         2.680722
 C        -1.277199         1.895905         1.145989
 O        -2.064398        -0.330191         2.810329
 C        -0.756905        -0.392544         2.114766
 H         0.540216        -0.863702         0.198551
 H        -2.169313         0.592841        -0.926171
 H        -2.425674        -0.940695         0.170196
 H        -3.520609         1.935242         0.755256
 H        -3.605850         0.952440         3.004249
 H        -2.195617         3.062676         2.706072
 H        -0.796276         1.982151         3.404161
 H        -0.886869         2.724378         0.566313
 H         0.113572        -0.009862         2.800177
 H        -0.496081        -1.365996         2.046644
