19
Iteration:  3335
 O         0.453696         0.273648         0.138558
 C        -0.768331         0.344004         0.730189
 C        -2.142870         0.192948         0.011998
 C        -2.634404         1.320102         0.964328
 C        -2.675077         1.035698         2.487130
 C        -1.530066         1.974581         2.689246
 C        -1.163450         1.766531         1.218946
 O        -2.164832        -0.325923         2.800772
 C        -0.878026        -0.487080         2.090111
 H         0.953193        -0.454043         0.576234
 H        -2.183327         0.740457        -0.924867
 H        -2.595400        -0.697136        -0.006397
 H        -3.398974         1.965000         0.580766
 H        -3.537358         1.078102         3.129686
 H        -1.743387         2.974383         3.023125
 H        -0.961959         1.636761         3.512862
 H        -0.736644         2.477006         0.506420
 H        -0.129655        -0.136342         2.848061
 H        -0.681294        -1.617797         1.976882
