19
Iteration:   362charge 0 multiplicity 1
 O         0.353674         0.171389         0.071118
 C        -0.788450         0.337771         0.875701
 C        -2.134374         0.281334         0.021689
 C        -2.507272         1.384192         0.947513
 C        -2.643755         0.987459         2.444094
 C        -1.532274         1.963309         2.789903
 C        -1.127702         1.816781         1.273517
 O        -2.237935        -0.391587         2.643998
 C        -0.848428        -0.532062         2.166881
 H         0.972543         0.891292        -0.009905
 H        -1.904093         0.665022        -0.970685
 H        -2.796378        -0.599345        -0.143183
 H        -3.248942         2.058022         0.599029
 H        -3.609359         1.142230         3.024020
 H        -1.843489         2.976494         3.106507
 H        -0.787974         1.615856         3.636074
 H        -0.623560         2.574298         0.717063
 H        -0.172571        -0.184308         2.979015
 H        -0.754923        -1.603934         1.943145
