19
Iteration:   554charge 0 multiplicity 1
 O         0.474594         0.030870         0.208171
 C        -0.788649         0.395019         0.820296
 C        -2.141339         0.301137         0.093605
 C        -2.585661         1.428475         0.957068
 C        -2.683304         0.981845         2.514696
 C        -1.624563         2.008986         2.739261
 C        -1.116520         1.957706         1.196883
 O        -2.141975        -0.407316         2.736054
 C        -0.871783        -0.579284         2.007519
 H         0.413466         0.356669        -0.722408
 H        -1.988220         0.662393        -1.035582
 H        -2.663682        -0.658371        -0.076627
 H        -3.441434         2.049721         0.649551
 H        -3.597787         0.899390         3.019292
 H        -2.169752         3.022276         2.985555
 H        -0.823862         1.908144         3.555899
 H        -0.466598         2.868584         0.853796
 H         0.015542        -0.551889         2.664541
 H        -0.753526        -1.580892         1.614035
