19
Iteration:  1336charge 0 multiplicity 1
 O         0.409225         0.134287         0.109484
 C        -0.755479         0.346673         0.854727
 C        -2.149121         0.174820         0.203291
 C        -2.561616         1.442464         0.894347
 C        -2.649014         0.918674         2.459335
 C        -1.637498         2.046480         2.737525
 C        -1.062149         1.843743         1.272361
 O        -2.176256        -0.352845         2.633136
 C        -0.836359        -0.472186         2.123483
 H         0.263027         0.343585        -0.847377
 H        -2.124939         0.149540        -0.975973
 H        -2.710327        -0.778593         0.532084
 H        -3.431545         2.147969         0.643747
 H        -3.604733         1.018564         3.019543
 H        -1.973589         3.099087         2.814595
 H        -0.914976         1.755494         3.569032
 H        -0.624540         2.704944         0.561785
 H        -0.058234        -0.159614         2.838152
 H        -0.627749        -1.508781         1.981829
