19
Iteration:   884charge 0 multiplicity 1
 O         0.527091         0.257666         0.244314
 C        -0.732251         0.381179         0.869850
 C        -2.124656         0.244319         0.065250
 C        -2.657672         1.402336         0.973208
 C        -2.635349         0.967193         2.543943
 C        -1.421635         1.895494         2.718356
 C        -1.216883         1.830789         1.188319
 O        -2.244795        -0.336284         2.606718
 C        -0.932412        -0.532968         2.015892
 H         0.348179        -0.232510        -0.558934
 H        -2.238313         0.534069        -1.025631
 H        -2.711917        -0.649163         0.070347
 H        -3.437207         2.136545         0.828525
 H        -3.549764         0.981631         3.099898
 H        -1.624034         2.985269         3.128231
 H        -0.608769         1.417958         3.381857
 H        -0.686603         2.728533         0.822247
 H        -0.165896        -0.428889         2.874854
 H        -1.086639        -1.584118         1.823904
