19
Iteration:   342
 O         0.481799         0.099894         0.173814
 C        -0.800617         0.416654         0.857384
 C        -2.054878         0.287942         0.065154
 C        -2.770562         1.442914         0.917998
 C        -2.703262         0.986862         2.484797
 C        -1.442389         1.935325         2.711733
 C        -1.173571         1.828582         1.288100
 O        -2.146290        -0.306148         2.706322
 C        -0.956666        -0.611703         2.002346
 H         1.071832         0.911285         0.244628
 H        -1.974626         0.609005        -0.971315
 H        -2.501980        -0.840336        -0.077454
 H        -3.522007         2.053829         0.634893
 H        -3.656590         1.001873         3.139633
 H        -1.757703         2.952492         2.980221
 H        -0.712337         1.472799         3.524704
 H        -0.567847         2.618602         0.936137
 H         0.079942        -0.413252         2.540858
 H        -0.906456        -1.621512         1.594690
