19
Iteration:  2554charge 0 multiplicity 1
 O         0.431402         0.122208         0.291090
 C        -0.849018         0.371777         0.846499
 C        -2.168417         0.255902        -0.012408
 C        -2.706396         1.409854         0.894107
 C        -2.615674         1.001985         2.522537
 C        -1.415702         2.017083         2.659488
 C        -1.232708         1.886898         1.195054
 O        -2.165118        -0.427924         2.681089
 C        -0.768197        -0.511830         2.147530
 H         0.402560         0.257778        -0.670852
 H        -1.961740         0.335660        -1.045085
 H        -2.476534        -0.750698         0.107454
 H        -3.595070         2.044417         0.779907
 H        -3.586978         0.982037         3.103918
 H        -1.829357         2.993356         2.974063
 H        -0.641536         1.741036         3.421921
 H        -0.645867         2.569013         0.552117
 H        -0.054457        -0.045211         2.811866
 H        -0.697708        -1.532750         1.940858
