19
Iteration:  2896charge 0 multiplicity 1
 O         0.397754         0.110050         0.162826
 C        -0.757817         0.416730         0.889995
 C        -2.119322         0.195653         0.049002
 C        -2.616559         1.340386         0.943571
 C        -2.595677         0.947322         2.439073
 C        -1.469173         1.980441         2.727264
 C        -1.229383         1.925861         1.293023
 O        -2.204643        -0.396448         2.675649
 C        -0.879736        -0.441677         2.107860
 H         0.348601         0.397437        -0.767709
 H        -1.947945         0.526264        -1.017683
 H        -2.738857        -0.746060        -0.007750
 H        -3.403191         2.107981         0.720156
 H        -3.522360         1.101654         3.010016
 H        -1.852470         3.013610         2.977953
 H        -0.678771         1.833789         3.469810
 H        -0.603961         2.697134         0.728702
 H         0.032782        -0.434526         2.831533
 H        -0.612950        -1.411454         1.806204
