19
Iteration:  1189charge 0 multiplicity 1
 O         0.385057        -0.012101         0.179122
 C        -0.807333         0.391231         0.819684
 C        -2.060751         0.294160         0.092297
 C        -2.653784         1.413744         0.942748
 C        -2.656305         0.965796         2.446344
 C        -1.641336         2.068866         2.756364
 C        -1.202944         1.857833         1.315521
 O        -2.075021        -0.351721         2.686585
 C        -0.787145        -0.513570         2.075786
 H         0.327696         0.192158        -0.786249
 H        -1.713254         0.570109        -0.977608
 H        -2.682875        -0.586424        -0.121822
 H        -3.530279         1.899059         0.553269
 H        -3.637432         1.027587         2.982675
 H        -1.779593         3.132407         3.050556
 H        -0.908805         1.674065         3.482148
 H        -0.573801         2.656318         0.820881
 H         0.073015        -0.022560         2.712970
 H        -0.718521        -1.578537         1.614610
