19
Iteration:  2280
 O         0.437957         0.135119         0.183143
 C        -0.798531         0.391967         0.861673
 C        -2.136411         0.116287         0.082715
 C        -2.644974         1.316679         0.915795
 C        -2.660973         1.002641         2.529498
 C        -1.516903         2.044280         2.675380
 C        -1.167725         1.894811         1.213959
 O        -2.167855        -0.290273         2.693677
 C        -0.822004        -0.583120         2.083935
 H         0.541197         0.916617        -0.416451
 H        -1.926901         0.485609        -0.913489
 H        -2.707427        -0.816319         0.225516
 H        -3.380412         2.048944         0.606100
 H        -3.470706         1.301459         3.237101
 H        -1.894667         2.973497         2.873784
 H        -0.688590         1.797207         3.300738
 H        -0.556273         2.648328         0.690992
 H        -0.119439        -0.590474         2.815640
 H        -1.046458        -1.603496         1.757367
