19
Iteration:  4131charge 0 multiplicity 1
 O         0.481462         0.325547         0.046526
 C        -0.727193         0.286022         0.779705
 C        -2.175437         0.054184         0.080014
 C        -2.681800         1.168533         0.991058
 C        -2.635440         1.087667         2.540945
 C        -1.560135         2.106050         2.629713
 C        -1.274625         1.762326         1.131692
 O        -2.087829        -0.273329         2.823416
 C        -0.856261        -0.444063         2.234514
 H         0.719808        -0.614685        -0.176499
 H        -2.386291         0.420558        -0.995023
 H        -2.574194        -0.957049         0.001696
 H        -3.412206         1.876526         0.648418
 H        -3.519923         1.194788         3.199354
 H        -2.021720         3.118304         2.803281
 H        -0.719580         1.986521         3.379520
 H        -0.794156         2.442302         0.460744
 H         0.141715        -0.083318         2.671356
 H        -0.697242        -1.573994         1.999475
