19
Iteration:  3709
 O         0.520645         0.203147         0.103765
 C        -0.804465         0.396207         0.783042
 C        -2.099435         0.101904         0.065412
 C        -2.660734         1.202780         0.959081
 C        -2.696904         0.982305         2.556397
 C        -1.551200         2.099527         2.674069
 C        -1.225341         1.836250         1.211289
 O        -2.111836        -0.291408         2.787775
 C        -0.853224        -0.417028         2.135413
 H         0.466128        -0.622478        -0.403954
 H        -2.256060         0.416572        -1.003867
 H        -2.353429        -0.973488        -0.039137
 H        -3.501200         1.716260         0.508674
 H        -3.671336         1.070749         3.107101
 H        -1.830748         3.151803         2.790044
 H        -0.826133         1.944799         3.481373
 H        -0.907899         2.577714         0.420731
 H         0.059125         0.023112         2.821154
 H        -0.916558        -1.424724         2.002362
