19
Iteration:  4004charge 0 multiplicity 1
 O         0.518082         0.349210         0.150423
 C        -0.806812         0.295854         0.792494
 C        -2.155369        -0.005764         0.142533
 C        -2.699758         1.305963         1.005615
 C        -2.620093         1.033845         2.487775
 C        -1.553323         2.162092         2.590580
 C        -1.283266         1.814054         1.157099
 O        -2.055637        -0.265401         2.850374
 C        -0.860070        -0.572747         2.089208
 H         0.668216        -0.546817        -0.197689
 H        -2.144906         0.197366        -0.933445
 H        -2.516957        -0.996585         0.360155
 H        -3.487949         1.885629         0.503067
 H        -3.545730         1.162301         3.060173
 H        -2.100280         3.078917         2.480240
 H        -0.797311         2.109943         3.362070
 H        -0.852353         2.552805         0.402466
 H         0.136153        -0.663900         2.693356
 H        -0.907047        -1.621041         1.642593
