19
Iteration:  3867
 O         0.450020         0.315677         0.185746
 C        -0.834609         0.436441         0.839739
 C        -2.118324        -0.013860         0.080918
 C        -2.723891         1.261732         0.935225
 C        -2.608616         1.030659         2.509998
 C        -1.474837         2.052515         2.602004
 C        -1.269060         1.818615         1.079129
 O        -2.120228        -0.321456         2.854636
 C        -0.816110        -0.463653         2.122142
 H         0.562385        -0.540366        -0.260543
 H        -2.023603         0.372785        -0.942411
 H        -2.560142        -1.056310         0.013129
 H        -3.560882         1.851378         0.473389
 H        -3.522442         1.248827         3.102080
 H        -1.963871         3.045828         2.828329
 H        -0.665448         1.605904         3.210694
 H        -0.681966         2.555603         0.572881
 H        -0.007267        -0.106908         2.873291
 H        -0.607041        -1.458409         2.019507
