19
Iteration:  3068charge 0 multiplicity 1
 O         0.538927         0.258248         0.187343
 C        -0.800240         0.357603         0.791751
 C        -2.093409         0.250773        -0.048965
 C        -2.737437         1.278980         1.025115
 C        -2.609340         0.994915         2.544650
 C        -1.525431         2.047182         2.655084
 C        -1.188497         1.808989         1.215696
 O        -2.176800        -0.359539         2.799554
 C        -0.928725        -0.550224         2.028070
 H         0.884035        -0.656938         0.224027
 H        -2.119064         0.887943        -0.970740
 H        -2.504470        -0.749542        -0.323980
 H        -3.385089         2.135030         0.702182
 H        -3.442854         1.217128         3.249817
 H        -1.964382         3.019880         2.880312
 H        -0.749902         1.778539         3.438226
 H        -0.713926         2.573827         0.609283
 H        -0.079982        -0.232618         2.633955
 H        -1.019451        -1.722550         1.792839
