19
Iteration:   596
 O         0.475310         0.199765         0.301074
 C        -0.798271         0.324066         0.778450
 C        -2.109946         0.257282        -0.051996
 C        -2.706613         1.356569         1.023452
 C        -2.600639         1.012254         2.603773
 C        -1.419529         1.978075         2.672463
 C        -1.143067         1.820806         1.138176
 O        -2.209472        -0.388411         2.694924
 C        -0.988743        -0.577190         2.061444
 H         0.782084         1.118547         0.100058
 H        -2.098634         0.882001        -0.941577
 H        -2.625711        -0.623294        -0.450723
 H        -3.476621         1.943061         0.627329
 H        -3.430099         1.235559         3.251612
 H        -1.507514         3.077599         2.984956
 H        -0.777262         1.691008         3.604302
 H        -0.699845         2.571046         0.402082
 H        -0.086735        -0.490409         2.705342
 H        -1.031823        -1.572883         1.636966
