19
Iteration:  2483charge 0 multiplicity 1
 O         0.383530         0.085026         0.149850
 C        -0.827382         0.347567         0.837238
 C        -2.074533         0.258632        -0.016406
 C        -2.630825         1.401628         0.966714
 C        -2.624557         0.951756         2.439231
 C        -1.582597         2.033397         2.715468
 C        -1.162299         1.851475         1.193381
 O        -2.105158        -0.320724         2.826625
 C        -0.828060        -0.582261         2.116907
 H         0.624752         0.958675        -0.219855
 H        -2.054257         0.579566        -1.110883
 H        -2.734731        -0.658486         0.045226
 H        -3.501934         2.026997         0.751576
 H        -3.634725         0.998013         2.828741
 H        -2.080097         3.028623         2.793647
 H        -0.823962         1.975241         3.518602
 H        -0.510733         2.520608         0.627746
 H        -0.041741        -0.285543         2.824358
 H        -0.829306        -1.640981         1.852075
