19
Iteration:  4623
 O         0.501329         0.118833         0.123641
 C        -0.778945         0.355161         0.819692
 C        -2.132057         0.027620         0.076254
 C        -2.753826         1.196029         0.978043
 C        -2.629910         1.032555         2.543913
 C        -1.593627         2.142581         2.701508
 C        -1.223055         1.902031         1.132249
 O        -2.077209        -0.289487         2.786579
 C        -0.794333        -0.384331         2.112198
 H         0.446787        -0.322589        -0.748054
 H        -2.250532         0.484743        -0.901958
 H        -2.564760        -0.917148         0.147679
 H        -3.535312         1.729132         0.366596
 H        -3.601499         0.963369         3.128006
 H        -2.198761         3.062733         2.925488
 H        -0.905839         1.995436         3.535309
 H        -0.789829         2.656343         0.503029
 H         0.071180         0.083471         2.816509
 H        -0.480374        -1.377878         1.863776
