19
Iteration:  3538
 O         0.385097         0.072794         0.160078
 C        -0.734932         0.395508         0.923528
 C        -2.075408         0.149934         0.157108
 C        -2.663165         1.328423         0.875250
 C        -2.636130         0.982954         2.490263
 C        -1.497975         2.087769         2.673515
 C        -1.280435         1.897804         1.140103
 O        -2.159051        -0.369193         2.703379
 C        -0.819085        -0.442282         2.162691
 H         0.487752         0.632025        -0.639285
 H        -2.066533         0.422757        -0.891192
 H        -2.416640        -0.912546         0.122838
 H        -3.545800         1.727935         0.360235
 H        -3.440102         1.000537         3.145706
 H        -1.979677         3.028754         2.895388
 H        -0.711767         1.876415         3.383818
 H        -0.902405         2.624445         0.473038
 H         0.052146        -0.014749         2.836213
 H        -0.508630        -1.562761         1.993605
