19
Iteration:  4809
 O         0.333945         0.057443         0.022183
 C        -0.744485         0.370271         0.944363
 C        -2.176690         0.129415         0.077739
 C        -2.651191         1.305289         0.873630
 C        -2.618052         0.926436         2.464129
 C        -1.535169         2.078948         2.637798
 C        -1.261733         1.930191         1.103122
 O        -2.103945        -0.392064         2.767839
 C        -0.733282        -0.348590         2.293148
 H         1.003651         0.737102         0.275619
 H        -1.730762         0.325420        -0.958946
 H        -2.680402        -0.841731         0.137615
 H        -3.663270         1.909268         0.769168
 H        -3.665347         1.125437         2.992567
 H        -2.148027         2.967201         2.971473
 H        -0.674130         1.914813         3.336551
 H        -0.869452         2.735190         0.462143
 H        -0.027199         0.045446         3.013993
 H        -0.478957        -1.391518         2.185787
