19
Iteration:  2915
 O         0.483952         0.240085         0.154446
 C        -0.783012         0.277889         0.787473
 C        -2.064140         0.267943         0.025788
 C        -2.667098         1.321604         0.960997
 C        -2.667663         1.018372         2.551776
 C        -1.473162         2.057570         2.751631
 C        -1.182752         1.806052         1.150862
 O        -2.175574        -0.313226         2.772519
 C        -0.944784        -0.633839         2.071000
 H         0.347034         0.855952        -0.576920
 H        -1.832748         0.680415        -1.017733
 H        -2.452740        -0.798418         0.134955
 H        -3.478411         1.837153         0.525081
 H        -3.575339         1.108352         3.164306
 H        -1.776836         3.031123         3.037517
 H        -0.893564         1.610055         3.562704
 H        -0.770079         2.640566         0.657711
 H        -0.004834        -0.599453         2.820016
 H        -1.001601        -1.696450         1.829513
