19
Iteration:  2186charge 0 multiplicity 1
 O         0.383338         0.119791         0.089021
 C        -0.710284         0.345077         0.874535
 C        -2.152267         0.165118         0.172150
 C        -2.631937         1.379733         0.865335
 C        -2.628101         1.021527         2.431098
 C        -1.534664         2.026091         2.707225
 C        -1.141332         1.829545         1.327819
 O        -2.203068        -0.327044         2.680063
 C        -0.817832        -0.512830         2.084911
 H         0.424271         0.708523        -0.665808
 H        -1.991228         0.206164        -0.951387
 H        -2.677707        -0.743940         0.546732
 H        -3.513890         1.960541         0.497176
 H        -3.513004         1.241610         3.049020
 H        -2.250109         3.046533         2.807483
 H        -0.887125         1.840911         3.684162
 H        -0.424922         2.497967         0.812500
 H        -0.016903        -0.012927         2.880779
 H        -0.535375        -1.599691         2.033772
