19
Iteration:   506
 O         0.452298         0.247086         0.040053
 C        -0.746853         0.323882         0.836940
 C        -2.083943         0.220721         0.147287
 C        -2.619225         1.413952         0.914726
 C        -2.664805         0.995273         2.387642
 C        -1.501334         1.910870         2.740758
 C        -1.096655         1.846292         1.323773
 O        -2.290440        -0.355181         2.689351
 C        -0.866582        -0.477657         2.148226
 H         0.254443        -0.381156        -0.670737
 H        -2.037870         0.456280        -0.862673
 H        -2.688987        -0.708285         0.204525
 H        -3.419804         1.987025         0.525311
 H        -3.555395         1.104922         3.084804
 H        -1.893311         2.880435         3.063972
 H        -0.842065         1.528210         3.632837
 H        -0.507354         2.631869         0.962910
 H        -0.150445        -0.106557         2.894484
 H        -0.694059        -1.571617         2.056523
