19
Iteration:   218
 O         0.419098         0.181642         0.157634
 C        -0.795291         0.360027         0.890940
 C        -2.144486         0.393399        -0.039880
 C        -2.635531         1.344592         0.976102
 C        -2.600440         0.930506         2.484217
 C        -1.519224         2.109100         2.783845
 C        -1.123335         1.861990         1.351481
 O        -2.219688        -0.414846         2.593320
 C        -0.813627        -0.635371         2.124480
 H         0.270879        -0.546812        -0.518942
 H        -1.818011         0.900790        -1.078849
 H        -2.759201        -0.466950        -0.323505
 H        -3.517399         1.881722         0.635657
 H        -3.499454         1.016245         3.045738
 H        -1.911939         3.165306         2.995912
 H        -0.829290         1.980678         3.685879
 H        -0.494279         2.408897         0.662435
 H        -0.078765        -0.389542         2.878338
 H        -0.867425        -1.703258         1.711277
