19
Iteration:  2496charge 0 multiplicity 1
 O         0.489336         0.153816         0.186677
 C        -0.811682         0.293954         0.853167
 C        -2.196237         0.210311         0.014700
 C        -2.602850         1.312323         0.894820
 C        -2.634841         0.995391         2.533870
 C        -1.517498         2.093781         2.666326
 C        -1.213033         1.818378         1.262146
 O        -2.095088        -0.300819         2.792306
 C        -0.952738        -0.562657         2.031877
 H         0.653807         0.921046        -0.381885
 H        -1.718453         0.572539        -0.903262
 H        -2.589779        -0.812459        -0.162901
 H        -3.319273         2.127413         0.637818
 H        -3.577240         1.063263         3.218184
 H        -1.949558         3.093538         2.923455
 H        -0.775803         1.757208         3.504553
 H        -0.874605         2.648935         0.630293
 H         0.029603        -0.523647         2.557675
 H        -0.937934        -1.552935         1.795366
