19
Iteration:  4394
 O         0.402603         0.135256         0.138383
 C        -0.783588         0.392504         0.808039
 C        -2.186784         0.100277         0.080591
 C        -2.701042         1.257577         0.912601
 C        -2.651912         0.942231         2.498991
 C        -1.578855         2.113478         2.620219
 C        -1.288982         1.874594         1.068029
 O        -2.048274        -0.302912         2.843761
 C        -0.683241        -0.367449         2.184765
 H         0.605692        -0.832718         0.174860
 H        -2.138212         0.412749        -0.999461
 H        -2.625369        -0.873589         0.102747
 H        -3.503763         1.893264         0.518792
 H        -3.560273         0.950065         3.126114
 H        -2.089108         2.993956         3.014069
 H        -0.798562         1.927336         3.314954
 H        -0.761015         2.634038         0.593161
 H         0.023388         0.125658         2.877015
 H        -0.227462        -1.416057         2.043909
