19
Iteration:  2079charge 0 multiplicity 1
 O         0.444663         0.184335         0.217493
 C        -0.805538         0.380596         0.862098
 C        -2.150148         0.214216         0.100193
 C        -2.623491         1.315438         0.932479
 C        -2.615141         1.013735         2.510651
 C        -1.487607         2.068755         2.687276
 C        -1.235355         1.785182         1.227506
 O        -2.179003        -0.319213         2.707024
 C        -0.797360        -0.589496         2.056533
 H         0.248812         0.531933        -0.674841
 H        -2.030800         0.558467        -0.940391
 H        -2.451216        -0.858602         0.098211
 H        -3.396922         2.081364         0.542716
 H        -3.607983         1.273252         2.996760
 H        -1.917750         3.049171         2.697331
 H        -0.762415         1.795294         3.483140
 H        -0.568039         2.413601         0.517974
 H         0.077850        -0.477803         2.758754
 H        -1.162508        -1.585301         1.776323
