19
Iteration:  3708charge 0 multiplicity 1
 O         0.519925         0.204842         0.089302
 C        -0.804266         0.397364         0.782404
 C        -2.094269         0.099351         0.061772
 C        -2.666559         1.207365         0.970534
 C        -2.698991         0.975648         2.550631
 C        -1.548214         2.110747         2.674398
 C        -1.216771         1.831710         1.217428
 O        -2.112487        -0.291572         2.791634
 C        -0.857631        -0.414693         2.146505
 H         0.468664        -0.649171        -0.385965
 H        -2.241989         0.396742        -1.043682
 H        -2.321311        -0.967029        -0.070019
 H        -3.492594         1.708466         0.481716
 H        -3.704857         1.061418         3.107470
 H        -1.869791         3.137795         2.801564
 H        -0.827969         1.941413         3.460893
 H        -0.893591         2.610622         0.440858
 H         0.052132         0.004034         2.786976
 H        -0.939865        -1.454372         2.046958
