19
Iteration:   505
 O         0.452516         0.247005         0.045938
 C        -0.745680         0.334076         0.837013
 C        -2.086916         0.232773         0.151292
 C        -2.621065         1.408120         0.913331
 C        -2.658301         0.989611         2.378266
 C        -1.497665         1.905180         2.741520
 C        -1.098439         1.841321         1.318899
 O        -2.287822        -0.350508         2.692941
 C        -0.874177        -0.481277         2.145630
 H         0.264182        -0.394767        -0.642325
 H        -2.048174         0.412248        -0.855233
 H        -2.658299        -0.702834         0.244553
 H        -3.459528         2.005764         0.525741
 H        -3.569148         1.093448         3.081550
 H        -1.869524         2.857838         3.061247
 H        -0.845715         1.566091         3.617168
 H        -0.506474         2.628585         0.977272
 H        -0.145794        -0.082331         2.886251
 H        -0.707497        -1.593735         2.005017
