19
Iteration:  4685
 O         0.452499         0.315884         0.138423
 C        -0.792450         0.333224         0.826962
 C        -2.141640         0.052387         0.158382
 C        -2.668055         1.216200         0.986876
 C        -2.638823         0.977577         2.475533
 C        -1.553071         2.144270         2.608346
 C        -1.226535         1.807874         1.120802
 O        -2.064637        -0.315929         2.749309
 C        -0.841709        -0.446531         2.153541
 H         0.597344        -0.657369         0.021010
 H        -2.308690         0.169667        -0.893407
 H        -2.755128        -0.858901         0.492129
 H        -3.338847         1.938271         0.661096
 H        -3.529005         1.058874         3.054887
 H        -2.059999         3.120768         2.629883
 H        -0.724579         2.105514         3.308480
 H        -0.880169         2.562079         0.417502
 H        -0.124482        -0.076905         2.790509
 H        -0.627852        -1.488451         1.909429
