19
Iteration:  4509charge 0 multiplicity 1
 O         0.314909         0.072516         0.056182
 C        -0.773701         0.413954         0.865463
 C        -2.108880         0.132780         0.156502
 C        -2.676114         1.241632         0.961368
 C        -2.628285         0.992269         2.519458
 C        -1.657757         2.133650         2.591493
 C        -1.237862         1.869826         1.128948
 O        -2.007811        -0.381551         2.756869
 C        -0.714103        -0.333513         2.144727
 H         0.860468        -0.560564         0.590225
 H        -1.891579         0.387189        -0.827483
 H        -2.784608        -0.760463         0.164434
 H        -3.583248         1.727692         0.653061
 H        -3.588757         1.009634         2.971804
 H        -2.181175         3.082238         2.606189
 H        -1.017398         2.111683         3.483802
 H        -0.726371         2.657869         0.523071
 H        -0.036488         0.117599         3.035746
 H        -0.301713        -1.351107         1.929058
