19
Iteration:  1093charge 0 multiplicity 1
 O         0.448594         0.071309         0.159105
 C        -0.729316         0.389553         0.800666
 C        -2.201346         0.246934         0.138679
 C        -2.617416         1.406579         0.979243
 C        -2.631042         0.937766         2.525958
 C        -1.542173         1.995258         2.679604
 C        -1.167091         1.789171         1.242027
 O        -2.175923        -0.393906         2.598218
 C        -0.877897        -0.433150         2.128759
 H         0.846054         0.923801        -0.113417
 H        -2.187156         0.438254        -1.012866
 H        -2.629848        -0.739124         0.231087
 H        -3.245784         2.257792         0.814499
 H        -3.624382         0.911771         3.050333
 H        -1.929506         3.066306         2.797336
 H        -0.782377         1.963429         3.540344
 H        -0.710834         2.665426         0.609669
 H        -0.192572        -0.049499         2.861417
 H        -0.610479        -1.389217         1.722989
