19
Iteration:  4233
 O         0.384779         0.177924         0.006440
 C        -0.786455         0.409920         0.882171
 C        -2.093415         0.070722         0.175201
 C        -2.642500         1.282621         0.875523
 C        -2.592355         0.969451         2.449325
 C        -1.646189         2.168566         2.618213
 C        -1.234206         1.843715         1.177891
 O        -2.047057        -0.318397         2.824091
 C        -0.779704        -0.504518         2.268104
 H        -0.117939         0.016302        -0.806002
 H        -1.982290         0.123867        -0.969206
 H        -2.590111        -0.881938         0.429336
 H        -3.527896         1.860414         0.486126
 H        -3.570492         1.041744         3.003190
 H        -2.147285         3.103109         3.007982
 H        -0.819843         1.906971         3.410074
 H        -0.729255         2.624611         0.493234
 H         0.008579        -0.028985         2.821235
 H        -0.521165        -1.516134         2.041415
