19
Iteration:  1884
 O         0.439424         0.001470         0.086934
 C        -0.701144         0.344547         0.807053
 C        -2.150328         0.276892         0.034002
 C        -2.588468         1.350843         0.977129
 C        -2.745580         0.956071         2.478006
 C        -1.611556         2.033331         2.756827
 C        -1.166954         1.832046         1.294183
 O        -2.097990        -0.308006         2.737789
 C        -0.866178        -0.417970         2.136403
 H         0.294308         0.481061        -0.765601
 H        -2.022932         0.698768        -0.981432
 H        -2.539830        -0.773882         0.007236
 H        -3.288744         2.246529         0.724896
 H        -3.797132         0.734364         2.882907
 H        -1.907743         3.097878         2.902161
 H        -0.779890         1.828939         3.472830
 H        -0.679092         2.630065         0.777039
 H         0.012573        -0.166514         2.735236
 H        -0.688150        -1.503346         1.811322
