19
Iteration:  1010
 O         0.482444         0.314829         0.251829
 C        -0.792088         0.327497         0.811420
 C        -2.176427         0.233516         0.021596
 C        -2.676167         1.366560         0.994286
 C        -2.597138         0.986553         2.566295
 C        -1.395127         2.063228         2.731860
 C        -1.239123         1.761031         1.199977
 O        -2.202943        -0.332674         2.621714
 C        -0.891986        -0.606806         2.014111
 H         0.844627        -0.600339         0.127116
 H        -2.122569         0.717871        -0.883417
 H        -2.524348        -0.841832         0.058772
 H        -3.477714         2.116064         0.732271
 H        -3.511942         1.086887         3.146906
 H        -1.776123         3.005138         2.801405
 H        -0.597314         1.892366         3.387282
 H        -0.883674         2.459943         0.479010
 H        -0.250892        -0.548850         2.933379
 H        -0.854203        -1.686189         1.725541
