19
Iteration:   629charge 0 multiplicity 1
 O         0.428124         0.184833         0.171966
 C        -0.811481         0.309904         0.833203
 C        -2.159042         0.194652         0.091173
 C        -2.603400         1.419313         0.910928
 C        -2.616312         0.999986         2.466407
 C        -1.437668         2.017269         2.792711
 C        -1.081935         1.939047         1.274626
 O        -2.239897        -0.416654         2.612243
 C        -0.933192        -0.569024         2.095164
 H         0.697609         1.044046        -0.179408
 H        -2.093014         0.452010        -0.950982
 H        -2.736810        -0.739724         0.168894
 H        -3.475495         1.918348         0.590789
 H        -3.540546         1.047566         3.037505
 H        -1.991879         3.003460         2.896396
 H        -0.637743         1.564154         3.500770
 H        -0.475294         2.617884         0.614348
 H        -0.117679        -0.418893         2.851036
 H        -0.824326        -1.631005         1.911406
