19
Iteration:  1059
 O         0.381342        -0.012845         0.071442
 C        -0.725415         0.339739         0.883581
 C        -2.044991         0.293637         0.018106
 C        -2.604907         1.360814         0.928889
 C        -2.691223         0.962025         2.489950
 C        -1.646449         2.102897         2.779754
 C        -1.234177         1.898146         1.284525
 O        -2.078515        -0.373187         2.755969
 C        -0.840197        -0.511622         2.057039
 H         0.446367         0.657574        -0.621546
 H        -1.749982         0.822719        -0.991718
 H        -2.500724        -0.696672         0.005993
 H        -3.271959         2.159587         0.711684
 H        -3.702277         0.994500         2.962186
 H        -1.993610         3.183894         3.015558
 H        -0.871987         1.792956         3.543961
 H        -0.748629         2.841289         0.747560
 H        -0.036138        -0.468063         2.763041
 H        -0.865449        -1.584684         1.884822
