19
Iteration:  1836charge 0 multiplicity 1
 O         0.534567         0.267258         0.314655
 C        -0.791733         0.374921         0.799481
 C        -2.121635         0.215617         0.059419
 C        -2.729622         1.290083         1.058585
 C        -2.605035         1.018496         2.522830
 C        -1.375177         2.094889         2.663741
 C        -1.242308         1.839796         1.170962
 O        -2.224159        -0.348386         2.715679
 C        -0.962043        -0.634476         1.988454
 H         0.582688         0.070308        -0.638025
 H        -2.016713         0.538570        -1.008091
 H        -2.575138        -0.755603         0.182275
 H        -3.589651         1.794132         0.724332
 H        -3.374546         1.179030         3.217105
 H        -1.554346         3.102337         2.787642
 H        -0.580251         1.839646         3.330020
 H        -0.818321         2.271731         0.190450
 H        -0.160021        -0.609511         2.589738
 H        -0.849507        -1.632355         1.550510
