19
Iteration:  4918
 O         0.440730         0.036610         0.014099
 C        -0.745479         0.396364         0.823814
 C        -2.163874         0.118319         0.158473
 C        -2.676608         1.285576         0.990076
 C        -2.654196         0.921794         2.475190
 C        -1.571865         2.108208         2.659545
 C        -1.297589         1.846280         1.168535
 O        -2.067574        -0.338746         2.714646
 C        -0.771619        -0.301955         2.176367
 H         1.111371        -0.349168         0.610831
 H        -2.082528         0.498364        -0.919220
 H        -2.700655        -0.812486         0.035604
 H        -3.509096         2.021697         0.863966
 H        -3.651918         1.106551         3.069340
 H        -2.090659         3.094626         2.737652
 H        -0.802796         2.089400         3.423023
 H        -0.811779         2.688818         0.695283
 H        -0.129705         0.308471         2.879101
 H        -0.624438        -1.428259         2.071087
