19
Iteration:   510
 O         0.447274         0.244414         0.022122
 C        -0.749773         0.296126         0.843391
 C        -2.083475         0.175766         0.125909
 C        -2.595067         1.423705         0.926332
 C        -2.694608         1.014648         2.442530
 C        -1.514567         1.931940         2.761719
 C        -1.093939         1.857323         1.329040
 O        -2.288197        -0.371923         2.667524
 C        -0.844171        -0.473452         2.161059
 H         0.231197        -0.322867        -0.756056
 H        -1.971284         0.632698        -0.973410
 H        -2.750158        -0.712023         0.082560
 H        -3.386567         2.034032         0.464949
 H        -3.541827         1.167613         3.036632
 H        -1.945105         2.946125         3.044971
 H        -0.899818         1.475261         3.558884
 H        -0.465604         2.688620         0.837158
 H        -0.152651        -0.167657         2.944756
 H        -0.654140        -1.525796         2.202678
