19
Iteration:  2815charge 0 multiplicity 1
 O         0.456483         0.240232         0.196229
 C        -0.793228         0.363221         0.873443
 C        -2.155794         0.237890        -0.031549
 C        -2.664586         1.336566         0.881590
 C        -2.617834         0.965794         2.536704
 C        -1.470069         2.023147         2.740557
 C        -1.168656         1.851302         1.151911
 O        -2.122917        -0.310971         2.817000
 C        -0.949405        -0.694653         2.083046
 H         0.599034         1.088510        -0.287649
 H        -1.905299         0.723603        -1.040589
 H        -2.733800        -0.744209         0.026706
 H        -3.504976         1.936644         0.550527
 H        -3.521232         1.057927         3.180169
 H        -1.822953         3.006893         2.842686
 H        -0.617164         1.788716         3.363834
 H        -0.665304         2.501966         0.465034
 H         0.005597        -0.656348         2.752800
 H        -1.232390        -1.687367         1.674872
