19
Iteration:  2916charge 0 multiplicity 1
 O         0.485208         0.246234         0.157491
 C        -0.775571         0.269979         0.785962
 C        -2.065277         0.272652         0.024282
 C        -2.665807         1.315451         0.967117
 C        -2.668544         1.022980         2.555040
 C        -1.474973         2.054646         2.745976
 C        -1.184513         1.799548         1.148195
 O        -2.171637        -0.312573         2.774536
 C        -0.955129        -0.632229         2.068857
 H         0.370745         0.873952        -0.562387
 H        -1.838723         0.658682        -1.043480
 H        -2.483075        -0.789707         0.120887
 H        -3.480273         1.859778         0.529367
 H        -3.570184         1.100488         3.184014
 H        -1.746199         3.062300         3.015858
 H        -0.945532         1.620283         3.581008
 H        -0.771953         2.655805         0.643198
 H         0.025627        -0.657616         2.806505
 H        -0.996151        -1.672923         1.830640
