19
Iteration:  4589
 O         0.472567         0.195445         0.330688
 C        -0.854998         0.405347         0.823655
 C        -2.236336         0.080364         0.144777
 C        -2.750104         1.233245         0.946294
 C        -2.544618         0.971047         2.481876
 C        -1.431337         2.133723         2.521821
 C        -1.295629         1.924833         1.006612
 O        -2.039338        -0.401820         2.809984
 C        -0.822179        -0.480383         2.148465
 H         0.435595         0.603634        -0.575742
 H        -2.150701         0.489843        -0.844388
 H        -2.530156        -0.924211         0.053108
 H        -3.684618         1.700386         0.598304
 H        -3.450030         1.154446         3.100680
 H        -2.043327         3.034536         2.823830
 H        -0.718048         1.889878         3.274720
 H        -0.851378         2.571193         0.280204
 H         0.013052        -0.098636         2.939039
 H        -0.623030        -1.455088         1.788479
