19
Iteration:  4163charge 0 multiplicity 1
 O         0.410850         0.183253         0.322157
 C        -0.809249         0.433397         0.868930
 C        -2.176493         0.134635         0.094406
 C        -2.730679         1.223972         0.950525
 C        -2.543687         0.998095         2.502122
 C        -1.511445         2.099842         2.530721
 C        -1.356370         1.920381         1.011311
 O        -1.977815        -0.402951         2.822324
 C        -0.828619        -0.406777         2.112179
 H         0.309099        -0.552430        -0.297163
 H        -2.301504         0.325485        -0.983212
 H        -2.395519        -0.895060         0.348386
 H        -3.566637         1.828675         0.650598
 H        -3.375438         0.999722         3.204499
 H        -1.973136         3.023581         2.883608
 H        -0.579460         2.019258         3.038155
 H        -0.893846         2.445259         0.224257
 H         0.126438        -0.188728         2.794146
 H        -0.695250        -1.441389         1.553899
