19
Iteration:  3382
 O         0.410082         0.157311         0.229960
 C        -0.849592         0.379675         0.940704
 C        -2.066668         0.167110         0.112074
 C        -2.631775         1.300928         0.975917
 C        -2.611806         0.968795         2.469170
 C        -1.571331         2.089094         2.654450
 C        -1.176308         1.953697         1.201003
 O        -2.150578        -0.332887         2.724879
 C        -0.825229        -0.573536         2.008581
 H         0.350153         0.066104        -0.727256
 H        -1.838377         0.515836        -0.899645
 H        -2.597637        -0.775303         0.176803
 H        -3.474664         1.934787         0.616734
 H        -3.651877         0.882195         2.898336
 H        -1.944974         3.095135         2.827491
 H        -0.734152         2.169954         3.340506
 H        -0.497975         2.543208         0.557354
 H         0.009814        -0.569244         2.691507
 H        -0.878272        -1.595153         1.469617
