19
Iteration:  1752
 O         0.427330         0.011734        -0.012131
 C        -0.765508         0.374305         0.797010
 C        -2.072706         0.186542         0.114251
 C        -2.579054         1.351150         0.963276
 C        -2.678322         1.009257         2.484022
 C        -1.636475         2.139013         2.808738
 C        -1.147880         1.907128         1.304700
 O        -2.192035        -0.371361         2.768137
 C        -0.817587        -0.545884         2.067777
 H         0.837147         0.778168        -0.478168
 H        -2.158045         0.511207        -0.910058
 H        -2.445515        -0.816804         0.110152
 H        -3.316916         2.007540         0.438729
 H        -3.578500         0.893678         3.021792
 H        -2.085000         3.138158         2.617424
 H        -0.950460         2.058722         3.710436
 H        -0.700390         2.631712         0.758019
 H        -0.194427        -0.023637         2.755466
 H        -0.700736        -1.607324         1.964238
