19
Iteration:  3060
 O         0.518978         0.261585         0.168052
 C        -0.774950         0.340162         0.781273
 C        -2.067765         0.285045         0.021444
 C        -2.652611         1.290858         0.965609
 C        -2.613513         0.980129         2.569585
 C        -1.522277         2.093039         2.687455
 C        -1.251858         1.797296         1.256080
 O        -2.139170        -0.341983         2.773847
 C        -1.000471        -0.585033         1.987144
 H         0.780437        -0.675934         0.013641
 H        -1.992699         0.683841        -1.102850
 H        -2.491059        -0.812259         0.030405
 H        -3.512892         2.016072         0.789510
 H        -3.589359         1.074589         3.096870
 H        -2.002490         3.097818         2.716822
 H        -0.849720         2.055219         3.522741
 H        -0.676916         2.517715         0.630360
 H        -0.144627        -0.509021         2.659470
 H        -0.892088        -1.687195         1.911756
