19
Iteration:   557
 O         0.479230         0.019518         0.229353
 C        -0.774903         0.414647         0.810856
 C        -2.139910         0.299501         0.058943
 C        -2.582161         1.436765         0.954519
 C        -2.684796         0.972604         2.506156
 C        -1.602889         2.031294         2.771203
 C        -1.138165         1.954772         1.159556
 O        -2.129298        -0.411583         2.753913
 C        -0.885731        -0.570228         2.005920
 H         0.471804         0.431866        -0.635715
 H        -2.054250         0.646911        -1.067783
 H        -2.680844        -0.672698         0.049488
 H        -3.469457         2.146330         0.645834
 H        -3.610529         0.807086         3.091466
 H        -2.107714         2.964494         2.998837
 H        -0.889218         1.761422         3.489211
 H        -0.611284         2.859371         0.831942
 H        -0.011417        -0.653746         2.679461
 H        -0.826656        -1.608950         1.546452
