19
Iteration:  4539
 O         0.364443         0.171389         0.001154
 C        -0.736799         0.322100         0.840630
 C        -2.095825         0.086508         0.114636
 C        -2.657772         1.197955         0.944130
 C        -2.645751         1.015006         2.526302
 C        -1.646076         2.144348         2.594985
 C        -1.265536         1.853277         1.191537
 O        -2.055097        -0.225690         2.838285
 C        -0.756802        -0.527946         2.159787
 H         1.033004         0.755163         0.395046
 H        -2.025862         0.116915        -1.026267
 H        -2.781987        -0.786632         0.338151
 H        -3.610313         1.711269         0.628824
 H        -3.667697         1.135373         2.924815
 H        -2.057041         3.134342         2.771479
 H        -0.846021         1.919202         3.372250
 H        -0.640836         2.564615         0.560132
 H         0.024283        -0.245233         2.836029
 H        -0.620439        -1.644681         1.862336
