19
Iteration:  4970charge 0 multiplicity 1
 O         0.399331         0.232797         0.032446
 C        -0.750750         0.324503         0.805700
 C        -2.101060         0.096384         0.065807
 C        -2.654972         1.224616         0.979794
 C        -2.669214         1.010157         2.536436
 C        -1.563026         2.118238         2.652669
 C        -1.200353         1.784324         1.098322
 O        -2.114960        -0.255961         2.842896
 C        -0.833503        -0.534331         2.175495
 H         1.111923         0.800613         0.402822
 H        -2.172490         0.422197        -0.995976
 H        -2.686749        -0.864028         0.047470
 H        -3.456619         1.833325         0.619352
 H        -3.486765         1.262967         3.228239
 H        -2.084633         3.108383         2.622820
 H        -0.940042         2.007620         3.532234
 H        -0.781931         2.566828         0.438903
 H         0.081943        -0.450505         2.805900
 H        -0.758653        -1.718704         2.079679
