19
Iteration:  2145
 O         0.446072         0.064954         0.185952
 C        -0.805624         0.325277         0.854454
 C        -2.118167         0.224252         0.046663
 C        -2.695694         1.332820         0.926488
 C        -2.601121         0.978557         2.514044
 C        -1.517251         2.051821         2.718087
 C        -1.237809         1.874625         1.192784
 O        -2.167742        -0.292092         2.728477
 C        -0.794232        -0.536129         2.108194
 H         0.555592         0.730120        -0.516432
 H        -2.021261         0.757184        -0.888477
 H        -2.612706        -0.756603         0.049857
 H        -3.599735         1.922945         0.514876
 H        -3.609855         0.971449         3.030343
 H        -1.898128         3.054711         2.780768
 H        -0.562209         1.846828         3.231363
 H        -0.590221         2.709785         0.767644
 H        -0.070721        -0.154100         2.785144
 H        -0.704408        -1.584758         1.851935
