19
Iteration:   347charge 0 multiplicity 1
 O         0.429217         0.113259         0.139184
 C        -0.791142         0.358133         0.850506
 C        -2.029340         0.290651         0.088315
 C        -2.760314         1.443800         0.913580
 C        -2.725450         0.997369         2.480027
 C        -1.442792         1.925127         2.755955
 C        -1.131288         1.818662         1.280412
 O        -2.175111        -0.335337         2.701345
 C        -0.906196        -0.566668         2.034795
 H         0.783880         0.992992         0.315230
 H        -1.828777         0.666171        -0.940154
 H        -2.418870        -0.670555         0.001496
 H        -3.629954         2.194079         0.540368
 H        -3.652684         1.014472         2.974136
 H        -1.777260         2.945902         2.958781
 H        -0.807529         1.489283         3.428442
 H        -0.467399         2.613399         0.743453
 H         0.021223        -0.395962         2.539236
 H        -0.753661        -1.621411         1.708159
