19
Iteration:  4184
 O         0.471497         0.195347         0.222691
 C        -0.787521         0.325981         0.779633
 C        -2.195322         0.076019         0.136565
 C        -2.735249         1.260782         0.911602
 C        -2.596548         0.949579         2.504874
 C        -1.520883         2.130539         2.624034
 C        -1.327294         1.923242         1.079791
 O        -2.048316        -0.278455         2.833508
 C        -0.744285        -0.467856         2.141451
 H         0.351826        -0.370187        -0.577356
 H        -2.131358         0.211918        -0.929409
 H        -2.740986        -0.892335         0.203977
 H        -3.684509         1.736908         0.704412
 H        -3.506979         0.899880         3.124604
 H        -1.964731         3.090553         2.812712
 H        -0.783034         2.072623         3.362316
 H        -0.843230         2.650249         0.448404
 H         0.230612         0.000409         2.583784
 H        -0.705575        -1.557899         1.801033
