19
Iteration:   403
 O         0.361804         0.088559         0.055335
 C        -0.703562         0.405645         0.909808
 C        -2.109384         0.226069         0.134693
 C        -2.585656         1.411169         0.976778
 C        -2.685152         1.023757         2.488098
 C        -1.575909         1.963876         2.759602
 C        -1.150032         1.837850         1.312874
 O        -2.195424        -0.361357         2.578185
 C        -0.836935        -0.538930         2.034925
 H         1.138793         0.552455         0.478309
 H        -1.918928         0.710357        -0.848180
 H        -2.644878        -0.655750         0.163505
 H        -3.296427         2.294136         0.548886
 H        -3.668005         0.960701         2.937855
 H        -1.871844         2.985470         3.023421
 H        -0.932971         1.693709         3.544008
 H        -0.684089         2.694277         0.708919
 H        -0.085864        -0.334517         2.822602
 H        -0.841279        -1.610471         1.635366
