19
Iteration:  1912charge 0 multiplicity 1
 O         0.368610        -0.052305         0.089483
 C        -0.718508         0.347024         0.871993
 C        -2.106442         0.270728         0.092650
 C        -2.695276         1.378497         0.916628
 C        -2.649926         0.946912         2.511591
 C        -1.588025         2.083335         2.830424
 C        -1.156312         1.916023         1.237110
 O        -2.151428        -0.372378         2.600262
 C        -0.809460        -0.437881         2.131017
 H         0.580816         0.707732        -0.470081
 H        -1.961033         0.495655        -0.975828
 H        -2.405232        -0.743663         0.176878
 H        -3.485667         1.999270         0.666645
 H        -3.568561         0.824534         2.972232
 H        -2.041287         3.061118         3.010945
 H        -0.798619         1.847731         3.566743
 H        -0.474500         2.674428         0.704380
 H        -0.014430         0.203668         2.824190
 H        -0.522013        -1.456931         1.948385
