19
Iteration:  2268charge 0 multiplicity 1
 O         0.452799         0.142122         0.289537
 C        -0.768583         0.358760         0.871532
 C        -2.164460         0.207080         0.095407
 C        -2.737118         1.381585         0.948240
 C        -2.592500         1.013566         2.440696
 C        -1.460424         2.055210         2.687076
 C        -1.195687         1.835105         1.130810
 O        -2.091335        -0.318063         2.756602
 C        -0.927867        -0.588091         2.045076
 H         0.637413         0.728300        -0.456621
 H        -2.088514         0.569249        -0.909585
 H        -2.540270        -0.810751        -0.031811
 H        -3.670254         1.814122         0.600518
 H        -3.568591         0.931358         2.965464
 H        -1.888158         2.993852         2.823676
 H        -0.811904         1.830068         3.515443
 H        -0.641563         2.544289         0.489035
 H        -0.060638        -0.462049         2.602050
 H        -0.886333        -1.596417         1.608795
