19
Iteration:  2428charge 0 multiplicity 1
 O         0.496343         0.030582         0.146349
 C        -0.814499         0.428365         0.843415
 C        -2.164310         0.163298         0.107210
 C        -2.660629         1.331173         0.964723
 C        -2.658645         1.087374         2.530229
 C        -1.505461         2.016758         2.700741
 C        -1.167990         1.883196         1.237772
 O        -2.190753        -0.403512         2.652119
 C        -0.845728        -0.462092         2.084718
 H         0.698917         0.827489        -0.402462
 H        -2.075544         0.466793        -0.977562
 H        -2.827616        -0.727411         0.195418
 H        -3.396220         1.983231         0.479135
 H        -3.535870         1.019486         3.046533
 H        -1.797636         3.079501         2.940255
 H        -0.702967         1.771137         3.416652
 H        -0.637658         2.701933         0.759975
 H        -0.169026        -0.221723         2.869296
 H        -0.538310        -1.434333         1.832418
