19
Iteration:  1318
 O         0.422108         0.098065         0.182274
 C        -0.760038         0.350629         0.866656
 C        -2.165396         0.231765         0.013254
 C        -2.634630         1.356720         0.940386
 C        -2.657449         0.968549         2.461801
 C        -1.492261         2.132620         2.743288
 C        -1.259541         1.902056         1.250634
 O        -2.104255        -0.359667         2.682862
 C        -0.803820        -0.583540         2.167212
 H         0.265457         0.071323        -0.788822
 H        -1.843598         0.651614        -0.937268
 H        -2.703211        -0.774864        -0.032926
 H        -3.497253         2.018220         0.582459
 H        -3.660907         1.163515         2.891247
 H        -2.117093         3.034086         2.839326
 H        -0.840737         1.928669         3.584160
 H        -0.567997         2.620601         0.765147
 H         0.064114        -0.253242         2.785198
 H        -0.801218        -1.697180         1.717669
