19
Iteration:   934
 O         0.442291         0.002894         0.042136
 C        -0.819920         0.346796         0.816363
 C        -2.051178         0.422605        -0.020303
 C        -2.595758         1.378618         1.018299
 C        -2.706746         0.946642         2.473023
 C        -1.646814         2.109773         2.783039
 C        -1.121681         1.798785         1.341586
 O        -2.122344        -0.393659         2.773230
 C        -0.840031        -0.580325         2.070993
 H         0.807648         0.754342        -0.468996
 H        -1.959934         0.906853        -0.950536
 H        -2.691971        -0.484343        -0.213592
 H        -3.241121         2.224438         0.742527
 H        -3.689828         0.942480         2.958462
 H        -2.212132         2.959595         2.687245
 H        -1.009159         2.106816         3.634637
 H        -0.715560         2.632792         0.746039
 H        -0.042997        -0.356423         2.724569
 H        -0.873434        -1.637347         1.861953
