19
Iteration:  4822
 O         0.400863         0.127581         0.123549
 C        -0.818619         0.323293         0.816978
 C        -2.145254         0.144512         0.120162
 C        -2.689148         1.269998         0.996112
 C        -2.588465         1.011912         2.473867
 C        -1.526913         2.104639         2.548840
 C        -1.259776         1.880830         1.095842
 O        -2.126338        -0.437973         2.787654
 C        -0.758045        -0.429522         2.251884
 H         1.133799         0.729179         0.284405
 H        -2.191675         0.662183        -0.901182
 H        -2.646197        -0.779368        -0.020193
 H        -3.546552         1.913817         0.477820
 H        -3.524738         1.059801         3.128803
 H        -1.949885         3.129972         2.692438
 H        -0.701975         1.949174         3.333574
 H        -0.893529         2.638510         0.351632
 H        -0.206142         0.185340         2.933920
 H        -0.331837        -1.318239         2.056553
