19
Iteration:  4295
 O         0.429050         0.157035         0.174621
 C        -0.859547         0.382866         0.837083
 C        -2.117189         0.114534         0.063652
 C        -2.714433         1.197662         0.930095
 C        -2.553973         0.980268         2.547895
 C        -1.494231         2.134189         2.568959
 C        -1.296791         1.830390         1.059140
 O        -2.098923        -0.312004         2.912674
 C        -0.799096        -0.454636         2.125163
 H         0.882194         0.953160        -0.154306
 H        -2.076680         0.572088        -0.940840
 H        -2.519621        -0.861959         0.027286
 H        -3.641688         1.672059         0.608612
 H        -3.459826         0.984589         3.174467
 H        -2.003146         3.055514         2.764755
 H        -0.651877         1.988327         3.153276
 H        -0.890075         2.393166         0.277849
 H         0.087187        -0.055452         2.729505
 H        -0.883442        -1.563651         1.947986
