19
Iteration:  4361
 O         0.348435         0.111528         0.040224
 C        -0.720933         0.394981         0.862789
 C        -2.151984         0.066276         0.152149
 C        -2.677250         1.238371         0.948528
 C        -2.615515         0.929959         2.556711
 C        -1.600726         2.142242         2.634362
 C        -1.287802         1.886571         1.093461
 O        -2.090901        -0.295972         2.717440
 C        -0.704969        -0.369100         2.215527
 H         0.909532        -0.515359         0.548074
 H        -2.065233         0.491997        -0.885291
 H        -2.427911        -0.948113         0.162649
 H        -3.484745         1.865643         0.549981
 H        -3.537331         1.142344         3.120421
 H        -2.199334         3.054765         2.744254
 H        -0.846466         2.051247         3.364736
 H        -0.782925         2.513819         0.427696
 H        -0.019644         0.193801         2.865222
 H        -0.457206        -1.484020         1.972528
