19
Iteration:  3851
 O         0.514765         0.219966         0.132803
 C        -0.745699         0.292502         0.772566
 C        -2.153360         0.148173         0.104651
 C        -2.708371         1.173213         0.980908
 C        -2.646478         0.982552         2.553329
 C        -1.516649         2.090937         2.656147
 C        -1.277114         1.840659         1.146971
 O        -2.120603        -0.288878         2.729564
 C        -0.819451        -0.343285         2.159192
 H         0.714628        -0.717806         0.008950
 H        -2.266988         0.322074        -0.994967
 H        -2.580141        -0.886264         0.213332
 H        -3.583423         1.726797         0.698616
 H        -3.625906         1.026298         3.083768
 H        -1.909428         3.090454         2.749317
 H        -0.732052         2.025758         3.395520
 H        -1.064041         2.625253         0.361248
 H        -0.051091         0.091846         2.707954
 H        -0.695327        -1.526360         2.054164
