19
Iteration:  2763
 O         0.463515         0.054511         0.259361
 C        -0.832104         0.413183         0.843968
 C        -2.130699         0.229499         0.071176
 C        -2.651327         1.394591         0.990222
 C        -2.561219         0.978852         2.475798
 C        -1.483505         1.994711         2.684181
 C        -1.259362         1.956890         1.185202
 O        -2.192792        -0.438564         2.640212
 C        -0.834261        -0.494700         2.102953
 H         0.554453         0.590257        -0.562703
 H        -2.137344         0.396979        -0.975877
 H        -2.560796        -0.774101         0.138057
 H        -3.498573         2.003700         0.781481
 H        -3.445748         1.130570         3.083819
 H        -1.819916         2.992437         3.054848
 H        -0.552604         1.779263         3.231749
 H        -0.984865         2.818986         0.557402
 H        -0.073003        -0.100492         2.774007
 H        -0.682085        -1.492289         1.846002
