19
Iteration:   243
 O         0.437034         0.118088         0.069254
 C        -0.708882         0.424266         0.843491
 C        -2.082635         0.230686         0.150146
 C        -2.556377         1.522160         0.964892
 C        -2.674020         0.968985         2.514306
 C        -1.594012         1.906905         2.839790
 C        -1.104517         1.884440         1.290320
 O        -2.234347        -0.410647         2.565986
 C        -0.878358        -0.509301         2.085483
 H         0.152077        -0.174707        -0.833969
 H        -1.938521         0.425144        -0.917687
 H        -2.645144        -0.820020         0.135190
 H        -3.129568         2.252829         0.553836
 H        -3.633407         0.967546         3.137968
 H        -2.079947         2.854773         2.936167
 H        -1.033954         1.909123         3.807818
 H        -0.649258         2.630721         0.699409
 H        -0.184137        -0.120064         2.874284
 H        -0.809866        -1.497498         1.740611
