19
Iteration:  4965charge 0 multiplicity 1
 O         0.385599         0.206231         0.029421
 C        -0.782258         0.347526         0.862055
 C        -2.130812         0.074834         0.068278
 C        -2.657563         1.238837         0.994992
 C        -2.616839         0.989018         2.485029
 C        -1.560599         2.112014         2.668752
 C        -1.196385         1.804711         1.141883
 O        -2.121443        -0.251489         2.813267
 C        -0.785716        -0.513423         2.167240
 H         1.097089         0.692993         0.462504
 H        -2.108122         0.338421        -0.986807
 H        -2.663410        -0.885516         0.101533
 H        -3.448545         1.825991         0.415577
 H        -3.558941         1.146653         3.038826
 H        -2.058871         3.073143         2.709059
 H        -0.790884         2.052035         3.495927
 H        -0.964725         2.571509         0.366520
 H        -0.007518        -0.337911         2.947508
 H        -0.858104        -1.510909         1.867283
