19
Iteration:  4730charge 0 multiplicity 1
 O         0.386947         0.262607         0.240479
 C        -0.824099         0.373467         0.872831
 C        -2.162584         0.109733         0.046794
 C        -2.703252         1.208945         0.951414
 C        -2.574511         0.933729         2.532634
 C        -1.437379         2.134662         2.572969
 C        -1.329628         1.842282         1.018652
 O        -2.033266        -0.284900         2.836434
 C        -0.836389        -0.448904         2.118397
 H         0.903737        -0.418939         0.748593
 H        -2.127581         0.585361        -0.926249
 H        -2.279909        -0.991626        -0.291623
 H        -3.667820         1.630186         0.654378
 H        -3.606132         0.916734         2.984587
 H        -1.855823         3.136272         2.899312
 H        -0.672934         1.814429         3.248276
 H        -1.009740         2.477683         0.217860
 H        -0.016989        -0.239269         2.708998
 H        -0.809428        -1.505298         1.727267
