19
Iteration:  4659
 O         0.340298         0.281527         0.021804
 C        -0.787117         0.287451         0.929188
 C        -2.066821         0.048119         0.150372
 C        -2.704248         1.289866         0.811791
 C        -2.705886         1.014849         2.459233
 C        -1.664692         2.135563         2.683776
 C        -1.163225         1.825471         1.173705
 O        -1.999677        -0.302214         2.810503
 C        -0.729277        -0.493702         2.244132
 H         0.037201        -0.497267        -0.514779
 H        -1.859049         0.233355        -0.979012
 H        -2.733402        -0.827981         0.139787
 H        -3.353893         2.045641         0.290586
 H        -3.535604         1.094992         3.178828
 H        -2.235383         3.068423         2.764924
 H        -0.803650         2.197911         3.420951
 H        -0.462890         2.472883         0.560606
 H         0.138822        -0.197931         2.949409
 H        -0.682447        -1.658317         2.009137
