19
Iteration:  4215
 O         0.391970         0.241138        -0.015967
 C        -0.688759         0.244511         0.822816
 C        -2.098426         0.026768         0.132607
 C        -2.655340         1.191222         0.964511
 C        -2.700258         1.029587         2.518463
 C        -1.574121         2.102432         2.672905
 C        -1.210267         1.851240         1.187533
 O        -2.152992        -0.241185         2.844660
 C        -0.745266        -0.400638         2.178314
 H         0.177328         0.018736        -0.925081
 H        -1.995838         0.457360        -0.825431
 H        -2.502793        -1.061550         0.110683
 H        -3.490354         1.821395         0.619305
 H        -3.611061         0.886931         3.100990
 H        -1.991899         3.077976         2.431044
 H        -0.955310         2.200158         3.560214
 H        -0.721936         2.601601         0.521060
 H         0.115213        -0.154353         2.841666
 H        -0.673690        -1.499479         2.146033
