19
Iteration:  1651
 O         0.396822         0.072492         0.169872
 C        -0.742570         0.384986         0.847135
 C        -2.122163         0.227601         0.003327
 C        -2.647576         1.363292         0.931372
 C        -2.614260         0.963269         2.410719
 C        -1.599666         2.022687         2.757699
 C        -1.167045         1.870292         1.249318
 O        -2.085392        -0.280618         2.771257
 C        -0.842232        -0.542906         2.102262
 H         0.332344         0.374073        -0.741006
 H        -1.956181         0.588345        -1.046185
 H        -2.655435        -0.710291         0.176145
 H        -3.418690         2.063734         0.523598
 H        -3.601172         0.928582         2.921972
 H        -2.197447         2.880478         3.048888
 H        -0.869546         1.990200         3.571170
 H        -0.786629         2.729367         0.731298
 H        -0.012115        -0.450306         2.746949
 H        -0.883912        -1.651207         1.952000
