19
Iteration:  3711
 O         0.519818         0.201026         0.135514
 C        -0.799800         0.391439         0.785353
 C        -2.110120         0.105266         0.070198
 C        -2.651174         1.194358         0.938427
 C        -2.690514         0.997710         2.565488
 C        -1.557771         2.076696         2.674506
 C        -1.244513         1.844859         1.192573
 O        -2.111819        -0.290053         2.781308
 C        -0.840452        -0.413193         2.115267
 H         0.456108        -0.573003        -0.442435
 H        -2.263344         0.468443        -0.913578
 H        -2.432111        -0.978136         0.049301
 H        -3.526284         1.750043         0.567320
 H        -3.589689         1.086214         3.102274
 H        -1.770872         3.176549         2.765825
 H        -0.816660         1.943401         3.517205
 H        -0.934241         2.510076         0.407620
 H         0.021374         0.022013         2.847828
 H        -0.833294        -1.455813         1.892915
