19
Iteration:  2947
 O         0.482648         0.173387         0.321883
 C        -0.848220         0.279564         0.750100
 C        -2.183058         0.285163         0.018461
 C        -2.664778         1.341767         0.948029
 C        -2.588718         0.939606         2.507230
 C        -1.487044         2.143545         2.707410
 C        -1.186200         1.889351         1.192764
 O        -2.072110        -0.325637         2.806722
 C        -0.958275        -0.678278         1.929914
 H         0.806482         1.070337         0.077409
 H        -2.185993         0.406664        -1.075971
 H        -2.593777        -0.771607         0.022516
 H        -3.505961         1.890588         0.610246
 H        -3.523159         0.974867         3.081220
 H        -2.047763         3.031989         2.904264
 H        -0.794923         2.073724         3.570178
 H        -0.612671         2.596615         0.626523
 H        -0.007090        -0.595860         2.422141
 H        -1.002899        -1.766666         1.624706
