19
Iteration:  2620
 O         0.355875         0.117099         0.166099
 C        -0.792439         0.334593         0.849529
 C        -2.117134         0.221107         0.064351
 C        -2.645970         1.367661         0.988386
 C        -2.649390         0.968529         2.430364
 C        -1.613046         2.084455         2.711531
 C        -1.098428         1.858346         1.194070
 O        -2.125471        -0.329045         2.740732
 C        -0.776697        -0.597067         2.077842
 H         0.863793         0.917782        -0.052356
 H        -2.047357         0.405559        -0.991121
 H        -2.672551        -0.717254         0.149231
 H        -3.505347         1.963366         0.719157
 H        -3.571654         1.146404         3.031344
 H        -1.863303         3.190965         2.815995
 H        -0.911655         1.902086         3.599821
 H        -0.777521         2.723031         0.585796
 H         0.154596        -0.555229         2.763318
 H        -0.936982        -1.558250         1.638368
