19
Iteration:   263
 O         0.446369         0.142947         0.124222
 C        -0.747958         0.386136         0.802771
 C        -2.107545         0.248446         0.038144
 C        -2.580985         1.380586         0.907523
 C        -2.703241         0.992875         2.423645
 C        -1.501306         1.927332         2.825875
 C        -1.099602         1.880436         1.385397
 O        -2.238904        -0.375942         2.677460
 C        -0.907174        -0.472299         2.058888
 H         0.383498         0.326695        -0.846675
 H        -2.285920         0.427737        -1.064352
 H        -2.606604        -0.753032         0.303093
 H        -3.423523         1.967473         0.708082
 H        -3.752362         1.003592         2.769711
 H        -1.663957         2.921212         3.300291
 H        -0.698312         1.507099         3.534158
 H        -0.499062         2.697450         1.108673
 H        -0.122736        -0.057252         2.747924
 H        -0.774592        -1.550165         1.864274
