19
Iteration:  4617
 O         0.512602         0.112253         0.188884
 C        -0.788279         0.381562         0.802175
 C        -2.157417         0.076322         0.104317
 C        -2.733944         1.217476         0.929772
 C        -2.611164         1.021175         2.591443
 C        -1.569291         2.161875         2.650054
 C        -1.310569         1.861631         1.155531
 O        -2.030034        -0.317135         2.730517
 C        -0.812190        -0.383074         2.128053
 H         0.307804        -0.269418        -0.699075
 H        -2.091604         0.425596        -0.995575
 H        -2.470177        -1.048921         0.176664
 H        -3.592689         1.762095         0.525034
 H        -3.479300         1.037168         3.223664
 H        -2.043768         3.130592         2.710745
 H        -0.843822         1.847213         3.455145
 H        -0.923118         2.681947         0.479161
 H        -0.115775         0.044421         2.737506
 H        -0.565537        -1.488147         1.907282
