19
Iteration:   929charge 0 multiplicity 1
 O         0.454070        -0.001740         0.057546
 C        -0.823359         0.343339         0.840740
 C        -2.079988         0.426241        -0.052578
 C        -2.548298         1.392064         1.001559
 C        -2.680280         0.941207         2.498950
 C        -1.645022         2.063155         2.744328
 C        -1.147723         1.837337         1.386342
 O        -2.100754        -0.382783         2.763088
 C        -0.875989        -0.600626         2.046845
 H         0.634084         0.724619        -0.560614
 H        -1.932469         0.779621        -1.142303
 H        -2.602932        -0.506131        -0.150508
 H        -3.295604         2.232849         0.785487
 H        -3.664291         0.980899         3.022839
 H        -2.295057         3.063497         2.747775
 H        -1.015202         2.276037         3.676773
 H        -0.819918         2.643017         0.719031
 H        -0.125802        -0.290497         2.881275
 H        -0.820169        -1.713349         1.859274
