19
Iteration:   776
 O         0.411704         0.148958         0.101950
 C        -0.791812         0.335651         0.884335
 C        -2.119055         0.378942        -0.017266
 C        -2.638326         1.448507         0.944468
 C        -2.693943         0.915661         2.506291
 C        -1.471086         2.054637         2.765659
 C        -1.144250         1.843841         1.336075
 O        -2.195395        -0.433408         2.625598
 C        -0.871296        -0.547407         2.099813
 H         0.883977        -0.682190         0.225569
 H        -1.723049         1.020040        -0.849209
 H        -2.555991        -0.610864        -0.057672
 H        -3.646231         2.063152         0.715459
 H        -3.668799         1.036743         2.977023
 H        -1.843591         3.069927         3.005565
 H        -0.643811         1.658208         3.358399
 H        -0.546921         2.505524         0.708586
 H        -0.092866        -0.144547         2.741857
 H        -0.770062        -1.637014         1.857252
