19
Iteration:   464charge 0 multiplicity 1
 O         0.519210         0.232463         0.277486
 C        -0.823550         0.304652         0.805809
 C        -2.153618         0.357049        -0.007072
 C        -2.739600         1.322280         1.000809
 C        -2.539581         1.011845         2.555249
 C        -1.453992         2.110135         2.729141
 C        -1.225786         1.821646         1.230504
 O        -2.156794        -0.364666         2.658376
 C        -0.959634        -0.675620         1.959552
 H         0.969393        -0.612482         0.544850
 H        -1.999032         0.903863        -0.971720
 H        -2.659222        -0.651656        -0.261364
 H        -3.559430         1.890970         0.766253
 H        -3.505521         1.141423         3.034439
 H        -1.983316         3.095136         2.728102
 H        -0.529442         2.001877         3.436625
 H        -0.674789         2.480268         0.554764
 H        -0.119083        -0.535408         2.660206
 H        -0.888134        -1.732462         1.808035
