19
Iteration:  2347
 O         0.452704         0.016156         0.229503
 C        -0.814751         0.371813         0.806714
 C        -2.153193         0.222197         0.001065
 C        -2.675661         1.361233         0.959975
 C        -2.602694         0.947527         2.494296
 C        -1.539588         2.126994         2.767190
 C        -1.173237         1.957407         1.216016
 O        -2.145790        -0.334502         2.751222
 C        -0.805930        -0.529026         2.062164
 H         0.467254         0.208186        -0.720457
 H        -1.881503         0.710389        -1.024998
 H        -2.581736        -0.804992         0.084266
 H        -3.558094         1.942607         0.641345
 H        -3.680910         0.827333         2.878414
 H        -2.095454         2.994222         3.038401
 H        -0.742552         1.814953         3.417736
 H        -0.660006         2.683312         0.545952
 H         0.023108        -0.280440         2.723032
 H        -0.915202        -1.615945         1.606036
