19
Iteration:  1130charge 0 multiplicity 1
 O         0.473147         0.252752         0.261368
 C        -0.844773         0.372022         0.878525
 C        -2.093481         0.174740        -0.032596
 C        -2.671304         1.312223         0.957691
 C        -2.551729         1.006684         2.492167
 C        -1.388354         2.015151         2.718862
 C        -1.276017         1.807948         1.218425
 O        -2.154897        -0.273490         2.704675
 C        -0.971948        -0.615517         2.050308
 H         0.573506         0.813767        -0.506511
 H        -1.962560         0.638889        -0.927307
 H        -2.607373        -0.788431        -0.015037
 H        -3.585488         1.882797         0.568542
 H        -3.415247         1.155662         3.107971
 H        -1.711161         2.964065         3.096538
 H        -0.518972         1.553976         3.202044
 H        -0.855673         2.500569         0.655210
 H        -0.228988        -0.737339         2.793314
 H        -1.105181        -1.641932         1.734439
