19
Iteration:  1765charge 0 multiplicity 1
 O         0.404791        -0.014033        -0.018222
 C        -0.687921         0.355895         0.818888
 C        -2.068624         0.246255         0.041921
 C        -2.587526         1.397761         0.993716
 C        -2.673232         0.946896         2.533621
 C        -1.674628         2.138268         2.759240
 C        -1.164540         1.797698         1.280087
 O        -2.139773        -0.352338         2.692793
 C        -0.829458        -0.485477         2.175286
 H         0.499731         0.770246        -0.567093
 H        -1.931337         0.398083        -1.005029
 H        -2.590269        -0.644325         0.409745
 H        -3.345113         2.213652         0.788332
 H        -3.715917         1.130411         2.874761
 H        -2.263264         3.151785         2.839715
 H        -1.073220         2.227848         3.727458
 H        -0.802141         2.610452         0.751069
 H         0.011678        -0.406410         2.809916
 H        -0.693042        -1.484709         1.901278
