19
Iteration:  3772
 O         0.482734         0.187410         0.081618
 C        -0.808741         0.340693         0.789776
 C        -2.081849         0.060828         0.100046
 C        -2.709366         1.218442         0.978354
 C        -2.653679         0.998005         2.541155
 C        -1.512132         2.086328         2.661395
 C        -1.247232         1.801124         1.149668
 O        -2.123951        -0.242527         2.783471
 C        -0.881225        -0.458700         2.146264
 H         0.882383         1.059212         0.211085
 H        -2.215562         0.482537        -0.991858
 H        -2.336457        -0.995457         0.054626
 H        -3.548656         1.864977         0.733334
 H        -3.570191         1.058661         3.257956
 H        -1.940263         3.068023         2.513290
 H        -0.697885         1.968518         3.356867
 H        -0.721921         2.542125         0.424601
 H        -0.125904        -0.241223         2.811567
 H        -0.634765        -1.603492         1.947904
