19
Iteration:  2247
 O         0.506819         0.109976         0.367072
 C        -0.784815         0.369159         0.780717
 C        -2.226624         0.237186        -0.114199
 C        -2.642652         1.315030         0.987776
 C        -2.620743         0.949796         2.592329
 C        -1.481967         2.093927         2.638934
 C        -1.260945         1.862337         1.156912
 O        -2.119827        -0.327272         2.816517
 C        -0.887046        -0.548730         2.000637
 H         0.745205         0.372148        -0.532249
 H        -2.134103         0.645388        -1.131263
 H        -2.699825        -0.720346        -0.339330
 H        -3.410486         2.021792         0.728643
 H        -3.437919         1.063597         3.331117
 H        -1.873491         3.001004         2.881629
 H        -0.661767         2.021456         3.274453
 H        -0.769057         2.601384         0.521080
 H        -0.044637        -0.367270         2.534983
 H        -0.944975        -1.625319         1.850106
