19
Iteration:   691
 O         0.389837         0.075026         0.187918
 C        -0.840858         0.397816         0.853421
 C        -2.035691         0.431134        -0.050816
 C        -2.565622         1.386410         0.978568
 C        -2.679634         0.867344         2.520602
 C        -1.502123         2.048401         2.733715
 C        -1.144501         1.829636         1.304326
 O        -2.165715        -0.425019         2.717844
 C        -0.897129        -0.510638         2.080773
 H         0.264516        -0.261296        -0.715800
 H        -1.717775         0.968230        -0.995787
 H        -2.543936        -0.544411        -0.445575
 H        -3.427853         2.097110         0.688284
 H        -3.781062         0.938402         3.003181
 H        -2.005248         2.975993         2.802351
 H        -0.777293         2.190306         3.526552
 H        -0.752857         2.579090         0.639489
 H        -0.013277        -0.262292         2.721739
 H        -0.741715        -1.603318         1.806675
