19
Iteration:  4564
 O         0.479779         0.234245         0.153697
 C        -0.812640         0.330574         0.763267
 C        -2.138355         0.024029         0.057772
 C        -2.724122         1.214916         0.975196
 C        -2.672929         0.997506         2.585981
 C        -1.431023         2.120582         2.588109
 C        -1.311902         1.761718         1.146710
 O        -2.084522        -0.205067         2.839217
 C        -0.820177        -0.491355         2.103200
 H         0.601333         1.200608        -0.024552
 H        -2.153711         0.160286        -0.965569
 H        -2.399738        -1.086144         0.184825
 H        -3.389478         1.906155         0.522184
 H        -3.587417         1.176838         3.075441
 H        -2.046043         2.974640         2.804509
 H        -0.707745         1.979501         3.394417
 H        -0.840053         2.379354         0.335926
 H        -0.014395        -0.188923         2.878179
 H        -0.749282        -1.578932         1.829802
