19
Iteration:  4722charge 0 multiplicity 1
 O         0.467987         0.244109         0.255876
 C        -0.805355         0.408840         0.789211
 C        -2.164655         0.115005         0.033058
 C        -2.747093         1.156844         0.988121
 C        -2.609793         0.989300         2.470941
 C        -1.422932         2.086321         2.570209
 C        -1.390703         1.852888         1.079924
 O        -2.026151        -0.298631         2.815827
 C        -0.874842        -0.446155         2.131441
 H         0.977146        -0.492900         0.671234
 H        -2.078127         0.528153        -0.999557
 H        -2.482012        -0.910700         0.003635
 H        -3.729176         1.719732         0.682158
 H        -3.508504         1.142914         3.186788
 H        -1.729581         3.045558         3.045629
 H        -0.460623         1.850754         3.080569
 H        -1.087589         2.514997         0.262691
 H         0.087137        -0.112849         2.672353
 H        -0.772595        -1.477351         2.053735
