19
Iteration:  2667
 O         0.522709         0.171081         0.276199
 C        -0.830184         0.455334         0.821721
 C        -2.170747         0.168749         0.042466
 C        -2.689134         1.279286         1.016590
 C        -2.624181         1.029129         2.506951
 C        -1.365776         2.005358         2.642073
 C        -1.272875         1.864049         1.136192
 O        -2.192929        -0.412720         2.708003
 C        -0.951436        -0.517066         2.086878
 H         0.850631         0.834253        -0.368680
 H        -2.187985         0.573074        -0.930271
 H        -2.372198        -0.842988        -0.113541
 H        -3.485755         2.000813         0.821806
 H        -3.449884         1.284042         3.133768
 H        -1.539414         3.052776         2.962788
 H        -0.494584         1.711145         3.227304
 H        -0.681539         2.566584         0.498187
 H        -0.186490        -0.193946         2.772513
 H        -0.781159        -1.658584         1.780676
