19
Iteration:  3948charge 0 multiplicity 1
 O         0.360007         0.104213         0.115044
 C        -0.799713         0.375280         0.838258
 C        -2.136577         0.144123         0.062874
 C        -2.734073         1.297519         0.942213
 C        -2.659575         0.921706         2.450301
 C        -1.568886         2.073858         2.647211
 C        -1.264689         1.946766         1.115378
 O        -2.009093        -0.349700         2.763819
 C        -0.712539        -0.346958         2.269545
 H         0.713609        -0.786480         0.214998
 H        -1.796785         0.344412        -0.995316
 H        -2.707297        -0.702584         0.108677
 H        -3.634587         1.606041         0.476698
 H        -3.568607         1.035435         3.050326
 H        -1.877886         3.020646         3.003507
 H        -0.884224         1.865404         3.434482
 H        -0.771980         2.711387         0.433254
 H         0.055979         0.124970         2.926850
 H        -0.529070        -1.349762         1.934380
