19
Iteration:  1367
 O         0.432081         0.130978         0.077950
 C        -0.738320         0.334356         0.840715
 C        -2.147233         0.134449         0.083908
 C        -2.647949         1.326648         0.902451
 C        -2.639265         1.002817         2.493115
 C        -1.556721         2.039808         2.770799
 C        -1.141622         1.834626         1.254391
 O        -2.192465        -0.304959         2.654001
 C        -0.830621        -0.489504         2.194196
 H         0.572434         0.894777        -0.483855
 H        -1.979695         0.482770        -0.950851
 H        -2.595860        -0.835527         0.092185
 H        -3.483574         1.952442         0.585997
 H        -3.517169         1.241033         3.110064
 H        -1.790678         3.084222         3.021040
 H        -0.889232         1.567179         3.530405
 H        -0.816879         2.628869         0.598330
 H        -0.072212        -0.054717         2.863838
 H        -0.738558        -1.496707         2.005063
