19
Iteration:  4560charge 0 multiplicity 1
 O         0.480014         0.229939         0.114032
 C        -0.816852         0.336093         0.773260
 C        -2.147722         0.015601         0.119907
 C        -2.729353         1.216880         0.975156
 C        -2.698067         1.005895         2.546715
 C        -1.438709         2.113411         2.603886
 C        -1.287587         1.740016         1.142576
 O        -2.059428        -0.199324         2.837630
 C        -0.822546        -0.472170         2.114067
 H         0.651396         1.185116         0.053163
 H        -2.110426         0.286644        -1.055349
 H        -2.250612        -1.097114         0.080004
 H        -3.400915         1.956245         0.423374
 H        -3.660117         1.156690         3.147437
 H        -2.038273         3.002315         2.828032
 H        -0.829416         2.023561         3.558401
 H        -0.840517         2.373109         0.312893
 H        -0.091001        -0.366801         2.802119
 H        -0.764910        -1.592461         1.880528
