19
Iteration:  2407
 O         0.421774         0.221076         0.288971
 C        -0.835629         0.354097         0.815668
 C        -2.133261         0.258844         0.043814
 C        -2.650726         1.380172         0.925245
 C        -2.580825         0.953901         2.478448
 C        -1.430870         2.020326         2.657342
 C        -1.169451         1.808615         1.165665
 O        -2.134339        -0.325913         2.767162
 C        -0.931808        -0.626148         2.089082
 H         0.401030         0.633433        -0.578725
 H        -2.049580         0.435308        -1.018541
 H        -2.595362        -0.735819         0.063884
 H        -3.406751         2.066173         0.517148
 H        -3.520536         1.099251         2.924562
 H        -1.954232         2.974547         2.958023
 H        -0.696882         1.888196         3.499088
 H        -0.806110         2.523434         0.435023
 H        -0.092380        -0.492391         2.756935
 H        -0.982181        -1.627413         2.010152
