19
Iteration:  1953
 O         0.553955         0.231652         0.274574
 C        -0.842221         0.359866         0.757159
 C        -2.148930         0.157528         0.013044
 C        -2.689294         1.359999         0.970457
 C        -2.641021         0.995943         2.521747
 C        -1.413076         2.067748         2.679926
 C        -1.217889         1.785842         1.234604
 O        -2.130746        -0.334943         2.709347
 C        -0.989403        -0.558713         2.066914
 H         0.502691         0.726510        -0.588666
 H        -2.114075         0.518095        -1.006785
 H        -2.714706        -0.759095         0.131401
 H        -3.575968         1.855901         0.653466
 H        -3.507569         1.072188         3.166302
 H        -1.785422         3.103757         3.084983
 H        -0.580102         1.732114         3.330746
 H        -0.559940         2.368132         0.628117
 H        -0.076301        -0.494965         2.702040
 H        -0.953165        -1.601784         1.794894
