19
Iteration:  1168charge 0 multiplicity 1
 O         0.529893         0.074629         0.253093
 C        -0.783723         0.392184         0.777838
 C        -2.172033         0.303751        -0.027830
 C        -2.617776         1.357392         0.982749
 C        -2.610192         0.912926         2.500449
 C        -1.569043         2.091423         2.741204
 C        -1.210918         1.923716         1.267231
 O        -2.085514        -0.341399         2.759843
 C        -0.932566        -0.624771         2.071802
 H         0.357640         0.104180        -0.706166
 H        -2.201190         0.677016        -1.171585
 H        -2.740923        -0.632985        -0.178739
 H        -3.388797         2.044050         0.734082
 H        -3.542957         1.065837         3.115378
 H        -2.325268         2.936483         2.746683
 H        -0.842212         2.185932         3.578982
 H        -0.622025         2.557491         0.453661
 H         0.144627        -0.418431         2.471329
 H        -1.082650        -1.648867         1.563037
