19
Iteration:  3042charge 0 multiplicity 1
 O         0.416412         0.252421         0.150701
 C        -0.782304         0.366837         0.913753
 C        -2.114641         0.134160         0.082864
 C        -2.610771         1.366246         0.933930
 C        -2.650875         0.974958         2.448097
 C        -1.624313         2.153069         2.747418
 C        -1.095318         1.891178         1.265576
 O        -2.114899        -0.347315         2.730068
 C        -0.850163        -0.659706         2.011929
 H         0.372787        -0.516268        -0.459611
 H        -2.069953         0.435088        -0.910927
 H        -2.683158        -0.740541         0.092093
 H        -3.270578         2.139832         0.543296
 H        -3.571706         1.040569         3.009435
 H        -2.174687         3.117132         2.861318
 H        -0.911963         2.071935         3.605778
 H        -0.587171         2.649582         0.638798
 H         0.049420        -0.885242         2.717772
 H        -1.129295        -1.621964         1.532721
