19
Iteration:   310
 O         0.530369         0.124669         0.310325
 C        -0.897624         0.352953         0.758922
 C        -2.117877         0.327976        -0.045105
 C        -2.603849         1.359743         1.062920
 C        -2.575230         0.918239         2.516417
 C        -1.453263         2.178610         2.740416
 C        -1.145066         1.885672         1.178342
 O        -2.197142        -0.469550         2.747315
 C        -1.027074        -0.663443         1.902105
 H         0.991247         0.944859         0.199404
 H        -2.112794         0.904580        -0.958020
 H        -2.580202        -0.773958        -0.193977
 H        -3.424068         1.980055         0.881695
 H        -3.527759         1.000862         3.119099
 H        -2.019028         3.096142         2.923725
 H        -0.710126         2.205389         3.585233
 H        -0.784929         2.714163         0.576194
 H        -0.164666        -0.308944         2.559167
 H        -1.055909        -1.689828         1.580904
