19
Iteration:   234
 O         0.420949         0.134611         0.081750
 C        -0.721009         0.312134         0.890831
 C        -2.056092         0.305520         0.153505
 C        -2.603002         1.487006         1.003849
 C        -2.689343         0.972758         2.475063
 C        -1.570166         2.047041         2.795227
 C        -1.139822         1.862852         1.312384
 O        -2.195842        -0.428220         2.514696
 C        -0.873447        -0.575944         2.074152
 H         0.176911        -0.335326        -0.748759
 H        -1.917612         0.772072        -0.762961
 H        -2.598848        -0.703517         0.165102
 H        -3.367107         2.258744         0.761108
 H        -3.710714         0.910979         2.966036
 H        -2.064099         2.992387         2.880023
 H        -0.829517         1.937445         3.580627
 H        -0.606058         2.726379         0.870051
 H        -0.111697        -0.314333         2.871292
 H        -0.634469        -1.600438         1.969274
