19
Iteration:  2211
 O         0.405252         0.085307         0.212227
 C        -0.713027         0.352479         0.827239
 C        -2.109694         0.185987         0.067529
 C        -2.594048         1.361435         0.976409
 C        -2.687039         0.955718         2.515789
 C        -1.505062         2.083050         2.673051
 C        -1.249007         1.878427         1.192926
 O        -2.146360        -0.299259         2.737049
 C        -0.857451        -0.541054         2.063263
 H         0.467195         0.522861        -0.658865
 H        -2.023134         0.706738        -0.856551
 H        -2.591701        -0.790992         0.025371
 H        -3.460444         2.021388         0.636795
 H        -3.748477         0.989263         2.911663
 H        -1.884274         3.090597         3.049930
 H        -0.608284         1.718653         3.259650
 H        -0.772439         2.649738         0.534974
 H        -0.128910        -0.327976         2.862043
 H        -0.704884        -1.587769         1.819225
