19
Iteration:  2082charge 0 multiplicity 1
 O         0.470609         0.187581         0.233974
 C        -0.804771         0.383293         0.855887
 C        -2.141383         0.213500         0.089591
 C        -2.642061         1.329812         0.953770
 C        -2.607058         1.025346         2.531779
 C        -1.512192         2.077827         2.693554
 C        -1.237145         1.759893         1.183040
 O        -2.173750        -0.322461         2.720300
 C        -0.824249        -0.599239         2.038512
 H         0.255152         0.510208        -0.644739
 H        -2.032261         0.536480        -0.967546
 H        -2.520316        -0.852277         0.022937
 H        -3.331343         2.128792         0.571315
 H        -3.603081         1.202319         3.052803
 H        -1.766837         3.131109         2.746702
 H        -0.792918         1.857559         3.450819
 H        -0.655585         2.393159         0.481000
 H         0.091470        -0.468983         2.764476
 H        -1.064419        -1.680878         1.670511
