19
Iteration:  4844
 O         0.482193         0.183762         0.182947
 C        -0.825002         0.315416         0.817818
 C        -2.175906         0.041194         0.046467
 C        -2.716481         1.223121         0.958906
 C        -2.583968         1.006272         2.609942
 C        -1.489374         2.126566         2.602253
 C        -1.276166         1.808891         1.161934
 O        -2.074101        -0.227119         2.768425
 C        -0.859855        -0.468311         2.044089
 H         1.215753         0.726064         0.552283
 H        -2.049412         0.232888        -1.072369
 H        -2.525566        -0.974428         0.139372
 H        -3.713161         1.839543         0.765155
 H        -3.552632         1.065251         3.214696
 H        -2.109902         3.033596         2.707631
 H        -0.674655         2.202214         3.408028
 H        -0.957163         2.530088         0.371631
 H        -0.045198        -0.304408         2.723177
 H        -0.892381        -1.410194         1.632646
