19
Iteration:  2596
 O         0.434704         0.015348        -0.022969
 C        -0.719747         0.336712         0.859861
 C        -2.020177         0.153782         0.055721
 C        -2.664808         1.430504         0.968008
 C        -2.656636         0.972062         2.487802
 C        -1.673722         2.143082         2.756099
 C        -1.173349         1.853928         1.349357
 O        -2.126087        -0.320289         2.758031
 C        -0.881062        -0.556740         2.058904
 H         0.817067         0.761152        -0.552399
 H        -2.039148         0.262821        -1.097189
 H        -2.629546        -0.845700         0.172472
 H        -3.341126         2.232708         0.546431
 H        -3.653676         1.078509         3.110958
 H        -2.096436         3.210805         2.876749
 H        -0.963272         2.033198         3.732408
 H        -0.690049         2.755641         0.954566
 H        -0.044539        -0.201050         2.820824
 H        -0.720089        -1.533908         1.803594
