19
Iteration:   421charge 0 multiplicity 1
 O         0.406343         0.139833         0.114925
 C        -0.815671         0.378505         0.800613
 C        -2.046465         0.286539        -0.043493
 C        -2.661756         1.390773         0.897166
 C        -2.651820         0.940010         2.442408
 C        -1.447305         2.005723         2.858227
 C        -1.228413         1.916924         1.283064
 O        -2.141269        -0.299699         2.743730
 C        -0.950716        -0.607405         2.068276
 H         1.136494         0.061922         0.794293
 H        -1.910082         0.613094        -1.126673
 H        -2.558184        -0.755447         0.073700
 H        -3.603081         1.781628         0.624452
 H        -3.537063         1.052489         3.029913
 H        -1.859560         2.979856         3.212837
 H        -0.733056         1.438088         3.493279
 H        -0.574635         2.664007         0.776146
 H         0.037326        -0.519473         2.631832
 H        -0.917116        -1.599592         1.631433
