19
Iteration:   537
 O         0.396247         0.117352         0.106139
 C        -0.757656         0.315388         0.867140
 C        -2.046514         0.310693         0.037330
 C        -2.637384         1.378116         0.979948
 C        -2.621882         0.946223         2.438672
 C        -1.554929         2.122826         2.792573
 C        -1.135515         1.762970         1.359774
 O        -2.182804        -0.352682         2.605773
 C        -0.853196        -0.522128         2.111980
 H         0.094715         0.052004        -0.818775
 H        -1.945275         0.730333        -0.924799
 H        -2.603769        -0.623591         0.050657
 H        -3.418011         2.141855         0.666727
 H        -3.581983         0.979233         3.095049
 H        -2.102169         2.997022         2.667626
 H        -0.976831         2.001439         3.683765
 H        -0.641768         2.490181         0.780640
 H        -0.116755        -0.245867         2.913080
 H        -0.732021        -1.644140         2.006266
