19
Iteration:  1740charge 0 multiplicity 1
 O         0.410399         0.052690         0.086313
 C        -0.737273         0.328962         0.817845
 C        -2.134184         0.173128         0.082211
 C        -2.645028         1.309169         0.948675
 C        -2.691596         0.996119         2.515140
 C        -1.580494         2.059702         2.721198
 C        -1.112921         1.902067         1.264444
 O        -2.131955        -0.312492         2.710010
 C        -0.861909        -0.466416         2.089453
 H         0.751936         0.922372        -0.210587
 H        -1.915696         0.535630        -0.926948
 H        -2.662676        -0.759707         0.113759
 H        -3.548008         1.883815         0.671359
 H        -3.601118         1.190122         2.999155
 H        -2.087409         2.946770         3.037355
 H        -0.817715         1.860001         3.543961
 H        -0.595075         2.692603         0.793726
 H         0.004892        -0.338819         2.757422
 H        -0.721945        -1.530541         1.770103
