19
Iteration:  1190charge 0 multiplicity 1
 O         0.385999        -0.014522         0.169276
 C        -0.804338         0.396460         0.821998
 C        -2.059534         0.292031         0.101447
 C        -2.658121         1.410532         0.938210
 C        -2.663300         0.964471         2.442766
 C        -1.634670         2.061979         2.754613
 C        -1.203282         1.856241         1.325251
 O        -2.079824        -0.351585         2.684910
 C        -0.790461        -0.503253         2.081741
 H         0.321980         0.215287        -0.777148
 H        -1.706735         0.574262        -0.997616
 H        -2.676016        -0.578030        -0.118630
 H        -3.521510         1.881175         0.556725
 H        -3.637472         1.035099         2.987773
 H        -1.785523         3.136397         3.038301
 H        -0.895039         1.655388         3.479594
 H        -0.523206         2.655371         0.803457
 H         0.090650        -0.024263         2.697235
 H        -0.700744        -1.555023         1.638695
