19
Iteration:  4144charge 0 multiplicity 1
 O         0.517884         0.252501         0.169416
 C        -0.838130         0.340080         0.796319
 C        -2.163516         0.032090         0.062522
 C        -2.761877         1.188868         1.008847
 C        -2.608778         0.998424         2.581311
 C        -1.456719         2.153014         2.584955
 C        -1.310798         1.844296         1.118572
 O        -2.098623        -0.291258         2.821500
 C        -0.794288        -0.447491         2.084992
 H         0.627216        -0.576055        -0.303810
 H        -1.981532         0.568871        -0.950022
 H        -2.546465        -0.982646         0.075556
 H        -3.672305         1.681771         0.633606
 H        -3.536886         1.152916         3.182548
 H        -1.919813         3.193939         2.631054
 H        -0.538555         2.046234         3.303768
 H        -1.065782         2.711628         0.443226
 H        -0.134165        -0.075513         2.801693
 H        -0.625681        -1.522427         2.043296
