19
Iteration:  2259
 O         0.523989         0.120562         0.352392
 C        -0.893947         0.332299         0.788976
 C        -2.142845         0.283375         0.024051
 C        -2.690329         1.309112         0.955096
 C        -2.578417         0.997902         2.479395
 C        -1.479288         2.098803         2.653557
 C        -1.241574         1.814827         1.178081
 O        -2.076858        -0.344115         2.793861
 C        -0.914062        -0.577195         2.022200
 H         0.513649         0.608024        -0.484557
 H        -2.076421         0.769207        -0.980618
 H        -2.694808        -0.638570         0.219647
 H        -3.478602         1.988203         0.714034
 H        -3.581008         1.156261         2.920844
 H        -1.875417         3.046941         2.750515
 H        -0.711955         1.776891         3.279791
 H        -0.948631         2.578881         0.454516
 H        -0.053770        -0.344859         2.569458
 H        -0.853659        -1.594464         1.574089
