19
Iteration:  1285charge 0 multiplicity 1
 O         0.519754         0.100139         0.307877
 C        -0.809911         0.444445         0.737984
 C        -2.119470         0.273036        -0.102307
 C        -2.664276         1.242972         0.971253
 C        -2.597412         0.963665         2.575762
 C        -1.450885         1.991100         2.667597
 C        -1.263557         1.876076         1.177466
 O        -2.132828        -0.311891         2.874669
 C        -0.965366        -0.500062         2.021489
 H         0.813463         0.314845        -0.617287
 H        -2.062803         0.756810        -1.052399
 H        -2.562863        -0.695086        -0.476664
 H        -3.625964         1.884656         0.836780
 H        -3.519103         1.279868         3.122586
 H        -1.936700         2.979109         2.800927
 H        -0.786095         1.911118         3.525050
 H        -0.880189         2.749052         0.620830
 H         0.005327        -0.709227         2.539788
 H        -1.079194        -1.694554         1.762980
