19
Iteration:  4232charge 0 multiplicity 1
 O         0.385904         0.182185        -0.001735
 C        -0.789099         0.399790         0.875595
 C        -2.085233         0.074108         0.177074
 C        -2.643254         1.280394         0.879352
 C        -2.598442         0.964583         2.454317
 C        -1.645427         2.174084         2.629461
 C        -1.229516         1.836906         1.171192
 O        -2.049917        -0.315343         2.827597
 C        -0.777621        -0.501041         2.267611
 H        -0.111010         0.022840        -0.806124
 H        -1.986263         0.127140        -0.970230
 H        -2.582502        -0.840519         0.412026
 H        -3.539172         1.810402         0.474264
 H        -3.586347         1.097692         2.969553
 H        -2.158894         3.084015         3.019471
 H        -0.825901         1.933425         3.396897
 H        -0.708116         2.586178         0.509419
 H         0.001192        -0.001106         2.863124
 H        -0.547406        -1.547381         2.025677
