19
Iteration:  4886
 O         0.367442         0.221349         0.057281
 C        -0.781133         0.385791         0.900780
 C        -2.103197         0.091971         0.000298
 C        -2.682482         1.249680         0.917792
 C        -2.576165         0.976714         2.489178
 C        -1.596989         2.098615         2.607626
 C        -1.296190         1.791541         1.143823
 O        -2.011780        -0.249770         2.915282
 C        -0.844620        -0.537308         2.142919
 H         1.078035        -0.075651         0.640858
 H        -1.866340         0.661421        -0.959710
 H        -2.665350        -0.838178        -0.069052
 H        -3.466458         2.034679         0.527647
 H        -3.512223         1.194830         3.171813
 H        -2.106523         3.087385         2.614319
 H        -0.840125         2.151750         3.413804
 H        -0.777090         2.574602         0.587033
 H         0.089264        -0.511726         2.797964
 H        -0.953132        -1.621552         1.845835
