19
Iteration:  1507charge 0 multiplicity 1
 O         0.414830        -0.025600         0.169415
 C        -0.732349         0.435100         0.836640
 C        -2.111582         0.210061         0.054490
 C        -2.642025         1.359111         0.957797
 C        -2.705831         0.980570         2.461469
 C        -1.573964         2.095425         2.776270
 C        -1.206685         1.889058         1.231641
 O        -2.124354        -0.373062         2.695712
 C        -0.789522        -0.470951         2.079652
 H         0.636619         0.616015        -0.525457
 H        -2.072789         0.468155        -1.022454
 H        -2.628938        -0.740405         0.295353
 H        -3.545827         1.891308         0.664204
 H        -3.723807         0.952988         2.942189
 H        -1.883450         3.215041         2.864792
 H        -0.776505         1.963724         3.578310
 H        -0.799439         2.734884         0.703108
 H         0.067384        -0.282856         2.804329
 H        -0.674305        -1.543702         1.641411
