19
Iteration:   680charge 0 multiplicity 1
 O         0.419491         0.016821         0.150852
 C        -0.731696         0.345238         0.803420
 C        -2.058784         0.398221        -0.107979
 C        -2.571288         1.394827         0.993580
 C        -2.594883         0.928753         2.482306
 C        -1.613311         2.063606         2.830043
 C        -1.174998         1.891190         1.269288
 O        -2.210344        -0.439731         2.748452
 C        -0.844244        -0.504409         2.092044
 H         0.072487        -0.116592        -0.723571
 H        -1.903392         1.049313        -1.016472
 H        -2.727423        -0.541053        -0.236846
 H        -3.269941         2.306333         0.851085
 H        -3.669909         0.968750         3.050087
 H        -2.170041         2.950902         2.875786
 H        -0.926021         1.860882         3.653118
 H        -0.741715         2.691165         0.685140
 H        -0.151614        -0.132230         2.869185
 H        -0.681057        -1.604453         1.815907
