19
Iteration:  3408
 O         0.497583         0.043846         0.168181
 C        -0.790927         0.341049         0.800228
 C        -2.170317         0.218506         0.047072
 C        -2.660777         1.337195         0.956309
 C        -2.630541         0.997855         2.542397
 C        -1.604256         2.016451         2.734281
 C        -1.220004         1.887564         1.178639
 O        -2.171012        -0.342933         2.678100
 C        -0.784641        -0.446311         2.138975
 H         0.906453         0.723166        -0.408927
 H        -2.187177         0.420383        -1.054725
 H        -2.598498        -0.840284         0.361566
 H        -3.310044         2.121134         0.557887
 H        -3.564410         0.938333         3.024740
 H        -1.892698         3.040337         2.983251
 H        -0.751504         1.864851         3.421846
 H        -0.753133         2.647017         0.558416
 H        -0.024774        -0.037831         2.768750
 H        -0.612514        -1.442010         2.032834
