19
Iteration:  1078
 O         0.449850         0.001230         0.089132
 C        -0.796773         0.324232         0.822314
 C        -2.125514         0.229352         0.060370
 C        -2.666528         1.360004         1.023054
 C        -2.652321         0.994350         2.502192
 C        -1.577745         2.109475         2.831571
 C        -1.150500         1.889493         1.300841
 O        -2.167042        -0.343476         2.569609
 C        -0.779222        -0.511482         2.074256
 H         0.846610         0.799141        -0.252026
 H        -2.024697         0.622813        -0.955766
 H        -2.752561        -0.742751         0.061185
 H        -3.556242         1.822644         0.591613
 H        -3.539610         1.051146         3.110257
 H        -2.235025         2.930940         2.760956
 H        -0.951359         2.085371         3.686998
 H        -0.576567         2.758201         0.720640
 H         0.008537        -0.061413         2.808858
 H        -0.657568        -1.659712         2.107631
