19
Iteration:   656charge 0 multiplicity 1
 O         0.460869        -0.032664         0.110078
 C        -0.723967         0.352138         0.799922
 C        -2.079697         0.283560         0.116918
 C        -2.630132         1.451746         0.954994
 C        -2.770981         0.959771         2.454818
 C        -1.549360         1.978776         2.844762
 C        -1.169324         1.879756         1.389806
 O        -2.154481        -0.302008         2.616373
 C        -0.832071        -0.462246         2.033921
 H         0.445904         0.467290        -0.734523
 H        -2.020218         0.664787        -0.979760
 H        -2.639509        -0.676290         0.214952
 H        -3.464734         2.151262         0.529874
 H        -3.782331         0.764110         2.931262
 H        -1.904008         2.971612         2.856244
 H        -0.815161         1.716179         3.537412
 H        -0.626453         2.693546         0.904665
 H        -0.048432        -0.284866         2.761705
 H        -0.875271        -1.554357         1.775566
