19
Iteration:  2829charge 0 multiplicity 1
 O         0.391199         0.137539         0.123634
 C        -0.825035         0.347365         0.852127
 C        -2.018590         0.268396         0.044114
 C        -2.648517         1.350960         0.918885
 C        -2.618841         0.979301         2.479964
 C        -1.503976         2.023733         2.654810
 C        -1.201817         1.827035         1.283655
 O        -2.131216        -0.352998         2.868153
 C        -0.921427        -0.552305         2.015966
 H         0.516489         0.961189        -0.365816
 H        -1.809188         0.517134        -0.973783
 H        -2.477123        -0.684741        -0.221103
 H        -3.510594         1.955472         0.670424
 H        -3.590700         1.147796         2.945508
 H        -1.907242         2.981302         2.943144
 H        -0.845412         1.846145         3.479567
 H        -0.608289         2.668991         0.897104
 H        -0.028970        -0.511936         2.696949
 H        -0.939045        -1.488891         1.632074
