19
Iteration:   909charge 0 multiplicity 1
 O         0.420395         0.072994         0.202484
 C        -0.824900         0.373991         0.824573
 C        -2.076760         0.296585         0.014417
 C        -2.618422         1.419112         0.908737
 C        -2.612352         0.957670         2.520442
 C        -1.589886         2.066453         2.837976
 C        -1.129748         1.921436         1.273203
 O        -2.131581        -0.413628         2.698582
 C        -0.855775        -0.567586         1.987304
 H         0.441368         0.105219        -0.750928
 H        -2.022627         0.690302        -0.997260
 H        -2.708418        -0.556172        -0.122106
 H        -3.475259         2.158259         0.550563
 H        -3.613090         0.935983         3.072034
 H        -2.150910         2.981303         3.075272
 H        -0.890575         1.876117         3.657521
 H        -0.505308         2.677091         0.891011
 H        -0.027330        -0.539621         2.725688
 H        -1.067358        -1.608446         1.646573
