19
Iteration:  2415
 O         0.430676         0.161137         0.248786
 C        -0.788282         0.335608         0.844082
 C        -2.132523         0.192765         0.077411
 C        -2.644601         1.453299         0.932148
 C        -2.646426         0.929700         2.496680
 C        -1.452973         2.014107         2.658137
 C        -1.185369         1.828969         1.163518
 O        -2.188701        -0.353624         2.747725
 C        -0.867741        -0.523284         2.076142
 H         0.484639         0.737840        -0.520083
 H        -2.001062         0.473673        -1.055210
 H        -2.546696        -0.859892         0.141445
 H        -3.488804         2.122351         0.797540
 H        -3.482090         1.218332         3.098334
 H        -1.880556         3.019811         2.847961
 H        -0.705241         1.806582         3.394379
 H        -0.589033         2.549986         0.578856
 H        -0.014987        -0.283972         2.687532
 H        -0.932173        -1.598156         1.675029
