19
Iteration:  1431
 O         0.538414         0.139094         0.302677
 C        -0.787206         0.412714         0.817084
 C        -2.141103         0.209367         0.039522
 C        -2.739079         1.259540         0.965170
 C        -2.636995         1.013884         2.484019
 C        -1.472946         2.157693         2.689504
 C        -1.263409         1.842415         1.221061
 O        -2.092107        -0.286904         2.784735
 C        -0.914935        -0.640115         1.962425
 H         0.623180         0.300105        -0.641366
 H        -1.989763         0.704758        -0.899550
 H        -2.452878        -0.792022        -0.065753
 H        -3.443417         1.930362         0.572663
 H        -3.549322         1.048633         3.120309
 H        -1.925748         3.147637         2.865159
 H        -0.767266         1.650154         3.330307
 H        -0.948890         2.597103         0.574610
 H         0.022121        -0.711932         2.656880
 H        -1.134310        -1.687374         1.515801
