19
Iteration:  1379charge 0 multiplicity 1
 O         0.434264         0.121532         0.176510
 C        -0.819605         0.307875         0.832677
 C        -2.079119         0.243097         0.047973
 C        -2.640424         1.318470         0.988045
 C        -2.644576         0.980574         2.497411
 C        -1.483687         2.061806         2.674094
 C        -1.274623         1.851630         1.152204
 O        -2.121819        -0.310247         2.726987
 C        -0.875633        -0.532256         2.119921
 H         0.668261         0.947257        -0.282033
 H        -1.774467         0.544288        -0.997961
 H        -2.683238        -0.681358        -0.019628
 H        -3.510170         1.977110         0.683641
 H        -3.639204         0.823717         2.968925
 H        -1.962852         2.999544         3.042136
 H        -0.681068         1.823735         3.451260
 H        -0.612450         2.561575         0.585437
 H        -0.093519        -0.304421         2.852826
 H        -0.797232        -1.565164         2.072544
