19
Iteration:   356
 O         0.359297         0.155675         0.101690
 C        -0.788646         0.302493         0.860889
 C        -2.083361         0.307697         0.049306
 C        -2.618803         1.404085         0.937931
 C        -2.684110         1.009797         2.450973
 C        -1.513498         1.932055         2.797057
 C        -1.105287         1.820663         1.260350
 O        -2.218190        -0.386978         2.676808
 C        -0.834379        -0.517926         2.093607
 H         0.862786         0.984079         0.126162
 H        -1.759879         0.718038        -0.924126
 H        -2.645962        -0.682787         0.001153
 H        -3.404640         2.088660         0.491905
 H        -3.619991         1.106587         2.967913
 H        -1.730224         2.963774         3.098485
 H        -0.812249         1.604853         3.517846
 H        -0.545141         2.555635         0.608644
 H        -0.134967        -0.281068         2.943095
 H        -0.835045        -1.585166         1.868343
