19
Iteration:  3161charge 0 multiplicity 1
 O         0.360972         0.263685         0.118899
 C        -0.819093         0.321363         0.900991
 C        -2.077582         0.273687        -0.037175
 C        -2.557266         1.340454         0.849915
 C        -2.644901         0.963058         2.401973
 C        -1.609449         2.018461         2.770031
 C        -1.132374         1.766709         1.299490
 O        -2.093015        -0.322066         2.812727
 C        -0.876437        -0.510763         2.149407
 H         0.356462        -0.530332        -0.440465
 H        -1.862922         0.531990        -1.120543
 H        -2.829351        -0.615610        -0.041930
 H        -3.317355         1.978247         0.479450
 H        -3.567625         0.908816         2.939353
 H        -1.962980         3.048604         2.889787
 H        -0.920241         1.708196         3.522622
 H        -0.639334         2.570462         0.739363
 H        -0.058991        -0.276704         2.850883
 H        -0.775765        -1.572380         1.826312
