19
Iteration:  4186charge 0 multiplicity 1
 O         0.472683         0.197952         0.201373
 C        -0.769743         0.305634         0.785309
 C        -2.191235         0.086023         0.127506
 C        -2.734831         1.249440         0.915277
 C        -2.606212         0.968198         2.514027
 C        -1.533547         2.129070         2.642150
 C        -1.328159         1.902618         1.084462
 O        -2.046114        -0.276518         2.830188
 C        -0.758019        -0.446085         2.141584
 H         0.378356        -0.333724        -0.600874
 H        -2.173716         0.231175        -0.992997
 H        -2.666538        -0.872630         0.261519
 H        -3.671655         1.745089         0.685077
 H        -3.513426         0.876048         3.140659
 H        -1.989752         3.125248         2.816690
 H        -0.734275         2.075794         3.393051
 H        -0.782845         2.529079         0.396880
 H         0.213417        -0.016505         2.620043
 H        -0.716800        -1.549175         1.819859
