19
Iteration:  1901
 O         0.393437        -0.073744         0.055384
 C        -0.777776         0.366136         0.800309
 C        -2.056058         0.223913         0.062175
 C        -2.663781         1.370220         0.935645
 C        -2.669493         1.025801         2.518970
 C        -1.607546         2.026098         2.846952
 C        -1.184716         1.870251         1.303994
 O        -2.164292        -0.307124         2.636042
 C        -0.728602        -0.450501         2.094818
 H         0.569597         0.639453        -0.628618
 H        -1.875834         0.672344        -0.935889
 H        -2.595376        -0.696522        -0.027239
 H        -3.469358         1.897874         0.550017
 H        -3.536123         1.121116         3.098572
 H        -2.125545         2.975228         2.996044
 H        -1.174243         1.802334         3.815972
 H        -0.705486         2.782836         0.791073
 H         0.036342         0.063439         2.877037
 H        -0.433109        -1.473498         2.201034
