19
Iteration:  1811
 O         0.543668         0.196174         0.281710
 C        -0.810658         0.440706         0.807447
 C        -2.207306         0.143033        -0.021471
 C        -2.645329         1.352799         0.965479
 C        -2.611544         0.908457         2.564394
 C        -1.424695         1.949957         2.658234
 C        -1.219220         1.915795         1.163591
 O        -2.185988        -0.318382         2.740037
 C        -0.951534        -0.504141         2.091193
 H         0.376133         0.100497        -0.688673
 H        -2.104339         0.523542        -1.029533
 H        -2.791558        -0.789885         0.064556
 H        -3.391433         2.004061         0.519529
 H        -3.449290         1.082640         3.297335
 H        -1.662009         3.016714         3.014165
 H        -0.563335         1.667776         3.286337
 H        -0.732979         2.621212         0.462533
 H        -0.110593        -0.359613         2.732239
 H        -0.747561        -1.503339         1.816110
