19
Iteration:  1887
 O         0.428018        -0.009048         0.069232
 C        -0.709959         0.329585         0.801966
 C        -2.134941         0.258997         0.028184
 C        -2.588522         1.355371         0.990262
 C        -2.744666         0.982959         2.474067
 C        -1.622971         2.010110         2.774241
 C        -1.182837         1.840323         1.320276
 O        -2.095268        -0.309810         2.718058
 C        -0.849432        -0.409161         2.140686
 H         0.435243         0.448176        -0.770396
 H        -2.006856         0.708730        -0.948114
 H        -2.560952        -0.764155        -0.040243
 H        -3.249359         2.186948         0.668416
 H        -3.772747         0.853899         2.921466
 H        -1.939786         3.147198         2.857497
 H        -0.781748         1.835463         3.479846
 H        -0.725970         2.660644         0.790188
 H         0.111586        -0.056923         2.868496
 H        -0.731050        -1.460222         1.784531
