19
Iteration:  2264charge 0 multiplicity 1
 O         0.488269         0.133068         0.320599
 C        -0.828399         0.336829         0.835037
 C        -2.148890         0.250689         0.070088
 C        -2.727752         1.353692         0.951874
 C        -2.573046         1.012208         2.450870
 C        -1.462830         2.072230         2.672882
 C        -1.214611         1.815728         1.150005
 O        -2.075957        -0.331791         2.773836
 C        -0.950183        -0.593483         2.039247
 H         0.573341         0.688193        -0.479797
 H        -2.078462         0.729534        -0.925283
 H        -2.603686        -0.778736         0.158628
 H        -3.669831         1.902077         0.622117
 H        -3.593642         1.002125         2.838922
 H        -1.978799         3.146536         2.741501
 H        -0.708755         1.702924         3.491804
 H        -0.809585         2.570202         0.436576
 H         0.078093        -0.324409         2.636030
 H        -0.830685        -1.552263         1.501738
