19
Iteration:   157
 O         0.463304         0.328122         0.256495
 C        -0.819239         0.325287         0.844737
 C        -2.106177         0.278873         0.057950
 C        -2.636021         1.415729         1.005338
 C        -2.577419         0.960789         2.562403
 C        -1.382387         2.017099         2.743534
 C        -1.191159         1.858158         1.253168
 O        -2.263096        -0.381778         2.552655
 C        -0.967492        -0.679169         1.915871
 H         1.001538        -0.458078         0.529928
 H        -2.093273         0.571622        -0.936463
 H        -2.668309        -0.724434         0.148153
 H        -3.486432         2.138783         0.729838
 H        -3.439036         1.079281         3.308144
 H        -1.763586         2.964248         2.986709
 H        -0.536005         1.713989         3.342538
 H        -0.740372         2.574956         0.558733
 H        -0.129656        -0.488965         2.677208
 H        -1.090939        -1.740359         1.667776
