19
Iteration:  2477
 O         0.325957         0.062181         0.143141
 C        -0.772163         0.350293         0.819955
 C        -2.093985         0.296376         0.022438
 C        -2.633659         1.387346         0.890088
 C        -2.644110         0.964053         2.403293
 C        -1.587854         2.044692         2.730033
 C        -1.121404         1.852131         1.223042
 O        -2.127565        -0.363302         2.817486
 C        -0.799738        -0.520833         2.133985
 H         0.766165         0.821970        -0.240529
 H        -2.241212         0.645224        -0.965229
 H        -2.613524        -0.637283         0.051392
 H        -3.531726         1.991213         0.626685
 H        -3.494949         0.734673         3.178322
 H        -2.026634         3.043069         2.767392
 H        -0.883755         2.018203         3.624960
 H        -0.537649         2.607161         0.634766
 H         0.029231        -0.364448         2.863206
 H        -0.704723        -1.651588         1.975746
