19
Iteration:  1490
 O         0.418780         0.024046         0.101961
 C        -0.754507         0.316736         0.856038
 C        -2.147178         0.188078         0.189656
 C        -2.651459         1.426193         0.949196
 C        -2.649094         0.965577         2.492126
 C        -1.621998         1.981879         2.694383
 C        -1.174229         1.847800         1.297916
 O        -2.126346        -0.291933         2.550922
 C        -0.790340        -0.422694         2.159232
 H         0.500217         0.606060        -0.662782
 H        -1.961224         0.453666        -0.855424
 H        -2.520996        -0.840784         0.185066
 H        -3.303497         2.180736         0.377422
 H        -3.516507         1.022952         3.138717
 H        -2.141658         2.872013         2.984785
 H        -1.047259         1.903385         3.631286
 H        -0.590339         2.640983         0.774504
 H        -0.005363         0.114651         2.767718
 H        -0.525583        -1.433044         2.106660
