19
Iteration:  4712
 O         0.562232         0.253643         0.220707
 C        -0.839479         0.354313         0.768590
 C        -2.127692         0.068309         0.034769
 C        -2.819732         1.171499         0.958675
 C        -2.563340         1.014282         2.572548
 C        -1.461942         2.041340         2.581263
 C        -1.376978         1.882716         1.072594
 O        -2.125008        -0.290926         2.839946
 C        -0.787876        -0.435205         2.075325
 H         0.862475        -0.585131         0.663109
 H        -2.220432         0.443318        -1.021727
 H        -2.690564        -0.778509         0.228343
 H        -3.730554         1.847839         0.608636
 H        -3.482179         1.284438         3.238287
 H        -1.796101         3.075347         2.782779
 H        -0.515628         1.711563         3.084573
 H        -1.001691         2.778496         0.524226
 H        -0.029424         0.037913         2.850765
 H        -0.563403        -1.496633         1.865428
