19
Iteration:  3143charge 0 multiplicity 1
 O         0.472350         0.291100         0.006717
 C        -0.742799         0.281661         0.793977
 C        -2.086157         0.156118         0.064656
 C        -2.613382         1.398490         0.931826
 C        -2.738730         1.026394         2.546371
 C        -1.633476         2.095408         2.778597
 C        -1.120381         1.808992         1.309563
 O        -2.186028        -0.312560         2.743561
 C        -0.813264        -0.660173         2.072036
 H         0.723115        -0.642813        -0.119945
 H        -1.896780         0.531668        -0.882604
 H        -2.445492        -0.820766         0.026602
 H        -3.368786         2.150667         0.600176
 H        -3.748577         1.145686         3.027082
 H        -2.211576         3.033045         2.713888
 H        -0.977151         2.053409         3.730362
 H        -0.495366         2.502388         0.729795
 H        -0.081712        -0.307815         2.870808
 H        -0.996853        -1.692849         1.892172
