19
Iteration:  2379charge 0 multiplicity 1
 O         0.533121         0.190618         0.282199
 C        -0.789350         0.342816         0.775913
 C        -2.103131         0.226367        -0.019953
 C        -2.719193         1.350715         1.000428
 C        -2.630068         0.991589         2.596551
 C        -1.466991         2.110398         2.664533
 C        -1.202531         1.785314         1.185328
 O        -2.140735        -0.289881         2.851924
 C        -0.945802        -0.591611         1.929664
 H         0.445084         0.174897        -0.683931
 H        -1.881013         0.659739        -1.056187
 H        -2.419346        -0.827038        -0.261452
 H        -3.529952         2.000697         0.618687
 H        -3.708867         1.040667         3.074606
 H        -1.887888         3.064240         2.911469
 H        -0.712077         1.872129         3.420872
 H        -0.768396         2.475483         0.421193
 H        -0.122124        -0.851403         2.631300
 H        -1.300814        -1.717018         1.763032
