19
Iteration:  2350
 O         0.466036         0.019446         0.244106
 C        -0.783583         0.380296         0.803756
 C        -2.172126         0.217606        -0.016285
 C        -2.658709         1.344113         0.968883
 C        -2.598079         0.961309         2.501821
 C        -1.537420         2.117361         2.734967
 C        -1.181747         1.964637         1.231230
 O        -2.140761        -0.337750         2.766623
 C        -0.826647        -0.529074         2.027038
 H         0.369586         0.194820        -0.724304
 H        -1.942077         0.747012        -0.984717
 H        -2.582077        -0.815779         0.060949
 H        -3.599362         1.849667         0.669457
 H        -3.603523         0.915794         2.874593
 H        -2.149681         3.028823         3.011856
 H        -0.775770         1.764449         3.418409
 H        -0.679545         2.731772         0.617010
 H        -0.032088        -0.379809         2.758541
 H        -1.002327        -1.535182         1.679106
