19
Iteration:  3426
 O         0.453493         0.080183         0.119559
 C        -0.761347         0.312758         0.839342
 C        -2.172032         0.178331         0.083511
 C        -2.683738         1.329839         0.982336
 C        -2.703829         0.983593         2.443122
 C        -1.469416         2.005076         2.695653
 C        -1.172385         1.764239         1.205320
 O        -2.140569        -0.344106         2.715710
 C        -0.861455        -0.322464         2.108926
 H         1.037239         0.856612         0.137927
 H        -2.070230         0.643784        -0.887385
 H        -2.568126        -0.783922        -0.187162
 H        -3.569864         1.910638         0.599408
 H        -3.597627         1.062603         3.129930
 H        -1.805681         3.035292         2.883328
 H        -0.910991         1.925415         3.636286
 H        -0.828516         2.730870         0.802120
 H        -0.053172         0.173581         2.733592
 H        -0.648697        -1.475172         2.045351
