19
Iteration:  1942
 O         0.478527         0.183653         0.253988
 C        -0.781871         0.329899         0.844153
 C        -2.190949         0.226260         0.062586
 C        -2.689784         1.356000         0.951435
 C        -2.579697         0.981824         2.520315
 C        -1.492833         1.987526         2.731192
 C        -1.139221         1.873874         1.121875
 O        -2.215411        -0.376876         2.720076
 C        -0.857377        -0.539782         2.036631
 H         0.592878         0.732063        -0.539766
 H        -2.201258         0.449186        -0.997020
 H        -2.591224        -0.785935         0.161861
 H        -3.459501         2.039728         0.644859
 H        -3.500879         1.174224         3.071582
 H        -1.942281         3.064640         2.847631
 H        -0.678374         1.856261         3.462250
 H        -0.634160         2.632851         0.538906
 H        -0.104426        -0.205767         2.802554
 H        -0.807718        -1.573573         1.770102
