19
Iteration:  1136charge 0 multiplicity 1
 O         0.487299         0.250532         0.272905
 C        -0.823470         0.393150         0.848602
 C        -2.065716         0.172186        -0.018375
 C        -2.666197         1.314092         1.014433
 C        -2.630151         1.035616         2.528892
 C        -1.410329         2.022104         2.680975
 C        -1.265181         1.786131         1.200714
 O        -2.157264        -0.305989         2.737063
 C        -0.966690        -0.647298         2.005618
 H         0.486636         0.717049        -0.601973
 H        -1.963975         0.829704        -1.014569
 H        -2.564038        -0.803201        -0.109582
 H        -3.399355         1.902801         0.532793
 H        -3.480081         1.228718         3.240141
 H        -1.647982         3.038823         3.124666
 H        -0.564453         1.797096         3.388683
 H        -0.783529         2.551350         0.337675
 H        -0.065344        -0.720861         2.730221
 H        -1.263064        -1.680897         1.652304
