19
Iteration:  1114charge 0 multiplicity 1
 O         0.444380         0.199359         0.261124
 C        -0.810194         0.351344         0.826228
 C        -2.175570         0.197257         0.067725
 C        -2.684983         1.365218         0.879839
 C        -2.612447         1.003395         2.462708
 C        -1.384692         1.935916         2.707879
 C        -1.193866         1.934172         1.188061
 O        -2.210512        -0.408097         2.721960
 C        -0.869964        -0.554071         2.078522
 H         0.533559         1.041974        -0.194345
 H        -2.019698         0.414816        -1.101589
 H        -2.696931        -0.768101         0.200582
 H        -3.559483         1.928325         0.618698
 H        -3.567743         1.231193         3.025560
 H        -1.609221         2.943757         3.200263
 H        -0.600693         1.705455         3.475151
 H        -0.505956         2.750870         0.536115
 H        -0.012399        -0.178544         2.699163
 H        -0.824292        -1.649868         1.842072
