19
Iteration:  4468charge 0 multiplicity 1
 O         0.458663         0.259207         0.161177
 C        -0.811490         0.367440         0.820880
 C        -2.186898         0.062501         0.100730
 C        -2.689086         1.182642         0.938030
 C        -2.651056         0.996463         2.526461
 C        -1.546166         2.102513         2.577931
 C        -1.228213         1.839295         1.102730
 O        -2.103286        -0.295535         2.868844
 C        -0.754651        -0.400028         2.127963
 H         0.510269        -0.573973        -0.326400
 H        -2.202113         0.254966        -0.994224
 H        -2.482140        -0.996360         0.254179
 H        -3.558261         1.708688         0.597353
 H        -3.490734         1.223512         3.186519
 H        -1.886738         3.151079         2.831412
 H        -0.786882         1.881939         3.336665
 H        -0.783258         2.520658         0.403165
 H         0.140069        -0.102139         2.567572
 H        -0.633105        -1.403253         1.893880
