19
Iteration:  4021
 O         0.403244         0.323690         0.252026
 C        -0.803786         0.387759         0.923743
 C        -2.165650         0.095631         0.079136
 C        -2.739672         1.208442         0.830099
 C        -2.594457         1.002709         2.541848
 C        -1.538044         2.125699         2.560433
 C        -1.248104         1.831453         1.037253
 O        -1.989962        -0.263061         2.877579
 C        -0.839290        -0.609975         2.104813
 H         0.535458        -0.410680        -0.348000
 H        -2.006067         0.412826        -0.992659
 H        -2.683319        -0.893210         0.211444
 H        -3.645085         1.762410         0.632214
 H        -3.486619         1.080130         3.188996
 H        -1.787395         3.179415         2.884824
 H        -0.675113         1.907827         3.277328
 H        -0.694008         2.453010         0.380100
 H         0.057463        -0.387963         2.631164
 H        -0.975170        -1.677561         1.702914
