19
Iteration:  1824
 O         0.578781         0.250526         0.300902
 C        -0.782620         0.365425         0.761215
 C        -2.160380         0.209040         0.097818
 C        -2.720386         1.299391         0.982862
 C        -2.577344         1.084573         2.559645
 C        -1.374068         1.996893         2.639277
 C        -1.233477         1.839866         1.106239
 O        -2.236199        -0.415824         2.765514
 C        -0.948096        -0.553487         2.018002
 H         0.629694         0.075731        -0.639592
 H        -2.318260         0.660684        -0.904104
 H        -2.511719        -0.816573         0.022188
 H        -3.581250         1.840492         0.724949
 H        -3.499828         1.308630         3.068948
 H        -1.848112         2.912952         2.937510
 H        -0.559856         1.731503         3.275278
 H        -0.838715         2.856211         0.710003
 H        -0.197854        -0.376770         2.670377
 H        -1.092175        -1.563447         1.660341
