19
Iteration:  1330charge 0 multiplicity 1
 O         0.425578         0.118638         0.131384
 C        -0.763192         0.342271         0.907316
 C        -2.177547         0.181956         0.099725
 C        -2.589587         1.402733         0.903294
 C        -2.591953         1.005987         2.433134
 C        -1.633664         2.035004         2.756654
 C        -1.111116         1.893168         1.248434
 O        -2.148101        -0.356649         2.647079
 C        -0.810263        -0.508963         2.136951
 H         0.087646         0.242712        -0.783653
 H        -2.272207         0.346228        -0.941677
 H        -2.759920        -0.716323         0.300779
 H        -3.358104         2.104132         0.581378
 H        -3.497828         0.927879         3.035667
 H        -2.150463         2.983739         2.976162
 H        -0.905303         1.938553         3.540437
 H        -0.645019         2.620469         0.648865
 H        -0.099351        -0.332531         2.982980
 H        -0.602701        -1.647415         1.937265
