19
Iteration:  4817charge 0 multiplicity 1
 O         0.379341         0.105384         0.077946
 C        -0.795434         0.309825         0.893572
 C        -2.185528         0.140665         0.095039
 C        -2.663672         1.300381         0.931122
 C        -2.601825         0.995706         2.468079
 C        -1.520127         2.082525         2.556043
 C        -1.248346         1.923392         1.102801
 O        -2.122581        -0.440292         2.788782
 C        -0.753039        -0.376722         2.280751
 H         1.143416         0.697940         0.195811
 H        -1.990379         0.630062        -0.873319
 H        -2.654516        -0.903948         0.028454
 H        -3.557354         1.848655         0.659885
 H        -3.576839         1.100309         3.001501
 H        -2.015292         3.012737         2.937660
 H        -0.816853         1.974259         3.336219
 H        -1.035874         2.683384         0.377505
 H        -0.116996         0.108160         3.094645
 H        -0.173532        -1.427463         2.002713
