19
Iteration:  1149charge 0 multiplicity 1
 O         0.532129         0.212593         0.270117
 C        -0.766805         0.329923         0.787256
 C        -2.096906         0.270802         0.030400
 C        -2.686704         1.296048         0.994149
 C        -2.642877         1.026835         2.607675
 C        -1.479170         2.093831         2.671916
 C        -1.171215         1.820500         1.172208
 O        -2.185158        -0.368854         2.835357
 C        -0.985089        -0.634517         1.926014
 H         0.506598         0.429193        -0.662444
 H        -2.065435         0.781222        -1.005266
 H        -2.425587        -0.752518        -0.159995
 H        -3.490075         2.017722         0.768231
 H        -3.612335         1.082801         3.134606
 H        -1.915017         3.118170         2.608222
 H        -0.716871         1.790367         3.431935
 H        -0.716717         2.725126         0.482934
 H        -0.067509        -0.648113         2.524769
 H        -0.998807        -1.601868         1.490282
