19
Iteration:   926
 O         0.452341        -0.001101         0.079929
 C        -0.793980         0.340767         0.843631
 C        -2.103814         0.415376        -0.074265
 C        -2.537764         1.418732         0.980132
 C        -2.657339         0.926876         2.528116
 C        -1.649733         2.049585         2.741805
 C        -1.164564         1.861786         1.398348
 O        -2.099402        -0.369410         2.751090
 C        -0.900963        -0.612546         2.043077
 H         0.471098         0.701339        -0.594854
 H        -1.886880         0.739589        -1.159384
 H        -2.589868        -0.608447        -0.106888
 H        -3.266597         2.111452         0.827361
 H        -3.575804         0.985381         3.026741
 H        -2.266046         3.034465         2.758262
 H        -1.037304         2.278559         3.663311
 H        -0.775534         2.709493         0.680470
 H        -0.156068        -0.290743         2.816843
 H        -0.759041        -1.667408         1.826002
