19
Iteration:  2008
 O         0.418478         0.038099         0.241408
 C        -0.793063         0.369635         0.777913
 C        -2.116866         0.259396        -0.015407
 C        -2.633004         1.363955         0.969526
 C        -2.631496         0.986157         2.501363
 C        -1.543605         2.131635         2.769343
 C        -1.234211         1.871060         1.210487
 O        -2.122203        -0.386320         2.748729
 C        -0.791111        -0.560871         2.066757
 H         0.593817         0.595069        -0.552337
 H        -2.054068         0.633653        -1.045856
 H        -2.715000        -0.645906        -0.013878
 H        -3.400134         2.024280         0.654134
 H        -3.545096         1.089483         3.075823
 H        -2.234399         3.054509         2.978383
 H        -0.688078         1.922516         3.430636
 H        -0.867554         2.542652         0.476006
 H        -0.057227        -0.293467         2.729090
 H        -0.747024        -1.525929         1.635272
