19
Iteration:   836
 O         0.433435         0.271633         0.146676
 C        -0.809492         0.318851         0.905112
 C        -2.153694         0.317972         0.058587
 C        -2.617038         1.463048         0.937562
 C        -2.632552         1.015269         2.500500
 C        -1.503402         1.954987         2.762940
 C        -1.133883         1.827098         1.266588
 O        -2.163099        -0.368978         2.633464
 C        -0.911097        -0.641969         2.025877
 H         0.818118        -0.617015         0.334114
 H        -1.932569         0.648348        -0.935670
 H        -2.535388        -0.714172        -0.198328
 H        -3.382633         2.094155         0.602958
 H        -3.479213         0.976105         3.215547
 H        -1.995880         2.901250         2.918295
 H        -0.775052         1.782947         3.572241
 H        -0.684249         2.640823         0.664614
 H        -0.120852        -0.638098         2.738690
 H        -1.003166        -1.685096         1.676834
