19
Iteration:  4455charge 0 multiplicity 1
 O         0.395396         0.352325         0.190303
 C        -0.812037         0.386556         0.819560
 C        -2.085618        -0.001178         0.135732
 C        -2.729899         1.248264         0.960758
 C        -2.588007         0.976354         2.465121
 C        -1.487729         2.097957         2.538585
 C        -1.242315         1.824359         1.075228
 O        -2.027661        -0.260693         2.875506
 C        -0.865642        -0.549872         2.152445
 H         0.366102        -0.373163        -0.477106
 H        -2.158840         0.338600        -0.845790
 H        -2.547915        -0.986958         0.393163
 H        -3.544662         1.853532         0.610357
 H        -3.558192         0.916974         2.919708
 H        -2.094045         3.021077         2.527358
 H        -0.620423         2.097152         3.224228
 H        -0.780345         2.648046         0.453174
 H        -0.161850        -0.303176         2.980888
 H        -0.939924        -1.571643         1.959644
