19
Iteration:  4542charge 0 multiplicity 1
 O         0.385527         0.188002         0.007801
 C        -0.731507         0.318395         0.845047
 C        -2.097782         0.064823         0.129010
 C        -2.684843         1.195020         0.949874
 C        -2.647803         1.044380         2.512599
 C        -1.650164         2.124299         2.624549
 C        -1.246776         1.821285         1.170840
 O        -2.049917        -0.221812         2.836997
 C        -0.791907        -0.526910         2.149771
 H         1.021532         0.849705         0.313013
 H        -2.037442         0.237953        -0.902288
 H        -2.798610        -0.815598         0.266288
 H        -3.581402         1.684923         0.634029
 H        -3.611788         1.102454         2.951652
 H        -1.933380         3.185071         2.655503
 H        -0.865429         1.877633         3.343008
 H        -0.699981         2.584512         0.545719
 H         0.165425        -0.174542         2.835953
 H        -0.717984        -1.601754         1.819460
