19
Iteration:  4458charge 0 multiplicity 1
 O         0.399820         0.331472         0.193393
 C        -0.811842         0.389079         0.797830
 C        -2.088742         0.007685         0.137272
 C        -2.740400         1.235714         0.965831
 C        -2.600244         0.957579         2.478735
 C        -1.508556         2.086432         2.541269
 C        -1.206066         1.840069         1.091344
 O        -2.055937        -0.263325         2.877708
 C        -0.829655        -0.507857         2.157970
 H         0.370080        -0.426237        -0.432520
 H        -2.314440         0.333386        -0.933654
 H        -2.525823        -0.987136         0.323073
 H        -3.535259         1.852443         0.575111
 H        -3.613165         1.033024         2.926063
 H        -2.040260         3.107943         2.599188
 H        -0.624275         2.060018         3.166393
 H        -0.793898         2.561502         0.434537
 H        -0.040856        -0.277533         2.792745
 H        -0.850310        -1.557106         1.938750
