19
Iteration:  3425
 O         0.460223         0.072599         0.121124
 C        -0.761218         0.315643         0.831836
 C        -2.171748         0.170893         0.084756
 C        -2.678531         1.337713         0.987112
 C        -2.713913         0.980355         2.446355
 C        -1.469706         2.003515         2.690544
 C        -1.174797         1.765150         1.208087
 O        -2.141265        -0.340809         2.713643
 C        -0.857745        -0.320210         2.103690
 H         1.009857         0.888190         0.128569
 H        -2.076543         0.636756        -0.892559
 H        -2.590293        -0.753383        -0.187086
 H        -3.572024         1.897573         0.627387
 H        -3.613012         1.085102         3.148940
 H        -1.832727         3.038569         2.897744
 H        -0.905461         1.901538         3.647113
 H        -0.816584         2.745515         0.790811
 H        -0.049526         0.193229         2.765317
 H        -0.623961        -1.505439         2.044597
