19
Iteration:  2135charge 0 multiplicity 1
 O         0.426230         0.055425         0.274187
 C        -0.847355         0.359824         0.808742
 C        -2.073572         0.234093         0.045178
 C        -2.671521         1.351672         0.966052
 C        -2.683621         0.952023         2.530813
 C        -1.459661         2.063518         2.622122
 C        -1.269127         1.927290         1.174216
 O        -2.079678        -0.362524         2.752120
 C        -0.881000        -0.491416         2.084921
 H         0.550321         0.646695        -0.473515
 H        -1.873818         0.574616        -0.972520
 H        -2.443032        -0.789820        -0.172921
 H        -3.553230         1.962216         0.542046
 H        -3.601257         1.054672         3.206822
 H        -1.744896         2.995229         2.980855
 H        -0.658861         1.884555         3.339667
 H        -0.708093         2.688619         0.526320
 H         0.100368        -0.431547         2.555045
 H        -0.882278        -1.555580         1.832571
