19
Iteration:  2084charge 0 multiplicity 1
 O         0.487860         0.190351         0.246049
 C        -0.799875         0.372974         0.853057
 C        -2.132729         0.203928         0.075259
 C        -2.663637         1.346061         0.970275
 C        -2.609751         1.034838         2.545495
 C        -1.527586         2.082578         2.693509
 C        -1.228649         1.750949         1.153336
 O        -2.166413        -0.323915         2.731588
 C        -0.851560        -0.607319         2.028065
 H         0.290593         0.500332        -0.664216
 H        -2.034523         0.527117        -0.979519
 H        -2.584405        -0.801275        -0.016492
 H        -3.280760         2.119355         0.612488
 H        -3.548746         1.117169         3.084439
 H        -1.690466         3.212996         2.801562
 H        -0.777203         1.900508         3.451993
 H        -0.745531         2.402325         0.475943
 H         0.026733        -0.480350         2.715431
 H        -0.930732        -1.685020         1.619156
