19
Iteration:  1534
 O         0.472359         0.144998         0.301898
 C        -0.779237         0.358425         0.789676
 C        -2.086730         0.260891        -0.071088
 C        -2.683431         1.294724         0.966893
 C        -2.596259         0.983870         2.548324
 C        -1.492721         2.028438         2.670569
 C        -1.263799         1.833037         1.164439
 O        -2.120803        -0.295719         2.836633
 C        -0.934392        -0.627312         2.023807
 H         0.570986         0.625496        -0.525145
 H        -1.930560         0.794406        -1.005838
 H        -2.716579        -0.612663        -0.151727
 H        -3.615723         1.881927         0.712467
 H        -3.486808         1.137696         3.111451
 H        -1.905218         3.046161         2.752655
 H        -0.619825         2.228618         3.331344
 H        -0.847556         2.734306         0.652967
 H         0.044593        -0.506598         2.683057
 H        -0.974831        -1.625008         1.683140
