19
Iteration:  2809
 O         0.470634         0.268382         0.247146
 C        -0.771809         0.347186         0.811930
 C        -2.178958         0.228529        -0.014118
 C        -2.656833         1.325117         0.932666
 C        -2.606132         0.982072         2.521242
 C        -1.451168         2.051768         2.728101
 C        -1.221546         1.831613         1.115984
 O        -2.123663        -0.313626         2.788234
 C        -0.949892        -0.715484         2.077903
 H         0.712098         1.040410        -0.280837
 H        -2.188560         0.546608        -1.040229
 H        -2.694986        -0.700044        -0.125769
 H        -3.350181         2.127469         0.584976
 H        -3.426300         1.064215         3.229918
 H        -1.832818         3.084829         3.091464
 H        -0.689752         1.784232         3.508378
 H        -0.592044         2.476591         0.416053
 H        -0.153280        -0.689100         2.774472
 H        -1.195663        -1.736690         1.757055
