19
Iteration:  3465
 O         0.412650         0.240795         0.092193
 C        -0.777287         0.347483         0.862701
 C        -2.084503         0.162575         0.159954
 C        -2.672288         1.281260         0.891088
 C        -2.579336         0.998967         2.467259
 C        -1.570617         2.141912         2.683086
 C        -1.229188         1.950241         1.185826
 O        -2.093624        -0.354991         2.819668
 C        -0.926715        -0.641536         2.080692
 H         1.101409        -0.317648         0.509266
 H        -1.914147         0.433345        -0.950144
 H        -2.597212        -0.842342         0.201498
 H        -3.402640         1.940213         0.479043
 H        -3.628096         1.037291         2.837723
 H        -2.018802         3.161498         2.652862
 H        -0.709066         2.045584         3.396980
 H        -0.687486         2.649822         0.492953
 H        -0.091650        -0.659022         2.757305
 H        -0.977372        -1.620970         1.629067
