19
Iteration:  3668charge 0 multiplicity 1
 O         0.323227         0.231778         0.093015
 C        -0.802695         0.311741         0.886294
 C        -2.140452         0.105815         0.115194
 C        -2.689668         1.344343         0.906294
 C        -2.691487         0.958322         2.427465
 C        -1.598587         2.141415         2.615803
 C        -1.156893         1.828045         1.193230
 O        -2.015813        -0.316140         2.739178
 C        -0.764754        -0.515184         2.194869
 H         0.902814        -0.393304         0.559549
 H        -1.940525         0.443760        -0.839714
 H        -2.693383        -0.817418         0.347056
 H        -3.392620         2.110474         0.489918
 H        -3.564318         0.801582         2.967728
 H        -2.173590         3.105406         2.775331
 H        -0.766285         2.119312         3.407954
 H        -0.517072         2.547574         0.728901
 H         0.037414        -0.181020         2.870028
 H        -0.578345        -1.590874         1.862597
