19
Iteration:   129
 O         0.437769         0.230843         0.060733
 C        -0.797286         0.327697         0.850852
 C        -2.162604         0.307044         0.052332
 C        -2.553541         1.463311         0.991329
 C        -2.600208         0.943586         2.442191
 C        -1.502519         1.952912         2.794005
 C        -1.078458         1.935737         1.305546
 O        -2.268291        -0.494951         2.615913
 C        -0.904732        -0.557344         2.126462
 H         0.733418        -0.718805         0.136216
 H        -2.015245         0.814896        -1.004603
 H        -2.762388        -0.530830        -0.175115
 H        -3.322628         2.209486         0.817664
 H        -3.469152         1.072451         3.024309
 H        -2.038183         2.971123         3.012334
 H        -0.790061         1.792521         3.642867
 H        -0.670725         2.805221         0.728567
 H        -0.236579        -0.141426         2.870478
 H        -0.846529        -1.640661         1.921618
