19
Iteration:  2148
 O         0.445081         0.069644         0.163219
 C        -0.761278         0.338273         0.863227
 C        -2.142947         0.217238         0.050323
 C        -2.698397         1.328895         0.918937
 C        -2.592635         1.009836         2.496220
 C        -1.521746         2.059847         2.722279
 C        -1.219912         1.842860         1.214650
 O        -2.168463        -0.303705         2.723653
 C        -0.795846        -0.533167         2.105863
 H         0.553785         0.751649        -0.543425
 H        -2.052722         0.679639        -0.948038
 H        -2.716402        -0.731438         0.029008
 H        -3.566571         1.910136         0.601346
 H        -3.577602         1.081609         3.008697
 H        -1.960840         2.976348         2.862578
 H        -0.717969         1.845945         3.366868
 H        -0.665294         2.650473         0.708386
 H        -0.159326        -0.099166         2.925061
 H        -0.666047        -1.607405         1.905433
