19
Iteration:  4755
 O         0.438159         0.240094         0.034519
 C        -0.733781         0.296565         0.858954
 C        -2.155137         0.142205         0.081058
 C        -2.676984         1.273721         0.910247
 C        -2.616604         1.001635         2.519547
 C        -1.611756         2.186134         2.583631
 C        -1.271520         1.814356         1.201876
 O        -2.006943        -0.299131         2.864104
 C        -0.859525        -0.575151         2.130989
 H         1.099106        -0.175377         0.632214
 H        -2.202342         0.196890        -1.051457
 H        -2.420532        -0.889643         0.215330
 H        -3.652895         1.848038         0.552151
 H        -3.594206         1.076116         3.188881
 H        -2.348837         3.037120         2.567721
 H        -0.865217         2.239694         3.422026
 H        -0.858655         2.583003         0.534999
 H         0.006062        -0.179749         2.685269
 H        -0.851061        -1.575136         1.997483
