19
Iteration:  4157charge 0 multiplicity 1
 O         0.435001         0.203894         0.299848
 C        -0.800717         0.426356         0.818253
 C        -2.130748         0.133537         0.107608
 C        -2.752605         1.221903         0.952477
 C        -2.565969         0.951650         2.555996
 C        -1.471756         2.147399         2.547348
 C        -1.361910         1.863831         1.006982
 O        -2.039571        -0.368423         2.815959
 C        -0.803338        -0.416208         2.115217
 H         0.289173        -0.588340        -0.277591
 H        -2.228074         0.287571        -1.015564
 H        -2.532419        -0.921984         0.216358
 H        -3.710795         1.750853         0.711080
 H        -3.425872         0.998194         3.257166
 H        -1.938051         3.117054         2.890091
 H        -0.561357         2.004597         3.273923
 H        -0.819379         2.446231         0.153715
 H         0.086764        -0.140357         2.552013
 H        -0.736505        -1.370550         1.709728
