19
Iteration:  1819charge 0 multiplicity 1
 O         0.580930         0.233263         0.294348
 C        -0.791994         0.404841         0.783231
 C        -2.188280         0.167537         0.055163
 C        -2.685763         1.319043         0.971387
 C        -2.580238         1.013534         2.585747
 C        -1.388404         1.971096         2.626099
 C        -1.219280         1.877357         1.106836
 O        -2.217978        -0.385616         2.758732
 C        -0.960465        -0.536927         2.036717
 H         0.527657         0.075742        -0.674482
 H        -2.291950         0.692418        -0.898728
 H        -2.651120        -0.850556        -0.002559
 H        -3.565585         1.957591         0.565340
 H        -3.537922         1.299537         3.119555
 H        -1.874959         2.960682         3.020957
 H        -0.525879         1.661408         3.302581
 H        -0.841838         2.779044         0.764271
 H        -0.081629        -0.250824         2.818506
 H        -1.083056        -1.600600         1.720706
