19
Iteration:  3976
 O         0.422006         0.221896         0.061546
 C        -0.796772         0.322600         0.784512
 C        -2.140297         0.029239         0.088420
 C        -2.709789         1.306668         1.007512
 C        -2.648601         1.006719         2.504299
 C        -1.551920         2.109811         2.652584
 C        -1.220342         1.839284         1.147102
 O        -2.100493        -0.345270         2.758198
 C        -0.760182        -0.390306         2.224766
 H         0.844210        -0.638045         0.175888
 H        -1.957755         0.345985        -0.940260
 H        -2.575900        -1.029942         0.232016
 H        -3.557309         1.841066         0.545372
 H        -3.563493         1.159735         3.091188
 H        -2.063151         3.139705         2.627610
 H        -0.904864         2.136504         3.580248
 H        -0.799143         2.581652         0.509560
 H         0.032682         0.074566         2.845435
 H        -0.563165        -1.436518         1.865237
