19
Iteration:   772
 O         0.403332         0.192858         0.127762
 C        -0.782421         0.350348         0.893826
 C        -2.127041         0.331208         0.028050
 C        -2.633711         1.461973         0.943549
 C        -2.678881         0.905570         2.499543
 C        -1.438046         2.047424         2.762154
 C        -1.174068         1.834164         1.314760
 O        -2.181433        -0.406174         2.585437
 C        -0.915621        -0.591224         2.121489
 H         0.980636        -0.610635         0.166686
 H        -1.816938         0.857936        -0.872833
 H        -2.716060        -0.567040        -0.296988
 H        -3.382305         2.118854         0.735857
 H        -3.633650         1.008927         2.945793
 H        -1.829978         3.087191         3.030312
 H        -0.560111         1.561753         3.297321
 H        -0.610323         2.533984         0.635293
 H        -0.086124        -0.131312         2.815908
 H        -0.802660        -1.632971         1.928985
