19
Iteration:  4819
 O         0.388194         0.115942         0.097615
 C        -0.808298         0.309897         0.861699
 C        -2.170485         0.141348         0.109060
 C        -2.668982         1.286704         0.961096
 C        -2.588997         1.005955         2.464771
 C        -1.522612         2.087234         2.546648
 C        -1.251793         1.910211         1.101268
 O        -2.125295        -0.442734         2.790194
 C        -0.754125        -0.397926         2.272423
 H         1.168855         0.711288         0.216023
 H        -2.081536         0.677639        -0.913336
 H        -2.652491        -0.861449         0.001090
 H        -3.594869         1.905546         0.555724
 H        -3.614129         1.083945         3.084555
 H        -1.993769         3.088414         2.853536
 H        -0.780332         1.963463         3.340741
 H        -0.997268         2.656591         0.369349
 H        -0.167128         0.141100         3.039636
 H        -0.210923        -1.385810         2.003578
