19
Iteration:  3410
 O         0.505302         0.035513         0.162118
 C        -0.797206         0.346224         0.772967
 C        -2.166069         0.200505         0.048388
 C        -2.655728         1.339715         0.971419
 C        -2.654339         0.993336         2.551804
 C        -1.597865         2.002897         2.728800
 C        -1.216293         1.885101         1.187434
 O        -2.173171        -0.328150         2.677961
 C        -0.782412        -0.433572         2.137621
 H         0.871024         0.803765        -0.318545
 H        -2.142388         0.478971        -1.037351
 H        -2.649901        -0.788974         0.329294
 H        -3.322615         2.096986         0.609827
 H        -3.619034         0.992483         3.035077
 H        -1.940063         3.050965         2.932467
 H        -0.724095         1.778318         3.394952
 H        -0.703906         2.603269         0.519418
 H        -0.030593         0.018451         2.849040
 H        -0.514290        -1.485818         2.023555
