19
Iteration:  3614charge 0 multiplicity 1
 O         0.397779         0.131631         0.153815
 C        -0.816902         0.386061         0.848631
 C        -2.020723         0.193847         0.030650
 C        -2.737356         1.164448         0.944630
 C        -2.578730         1.025996         2.514393
 C        -1.446486         2.099604         2.623317
 C        -1.302441         1.832812         1.085868
 O        -2.176835        -0.311648         2.821385
 C        -0.830374        -0.478928         2.167676
 H         1.056108         0.800630         0.384544
 H        -1.827711         0.542761        -0.939213
 H        -2.537256        -0.806190        -0.017646
 H        -3.610660         1.695592         0.520512
 H        -3.397298         1.150056         3.137381
 H        -1.942444         2.965343         3.104068
 H        -0.596142         1.855166         3.306335
 H        -1.004520         2.620819         0.453101
 H         0.014853        -0.212061         2.776739
 H        -0.797179        -1.536218         1.650892
