19
Iteration:  4079charge 0 multiplicity 1
 O         0.398034         0.150934         0.080851
 C        -0.755086         0.339418         0.846576
 C        -2.162980         0.072655         0.201784
 C        -2.698979         1.306569         0.960072
 C        -2.646221         0.956329         2.490974
 C        -1.599530         2.138341         2.697494
 C        -1.239716         1.889333         1.130989
 O        -2.063570        -0.288178         2.695701
 C        -0.729904        -0.439526         2.155832
 H         0.612432        -0.794122        -0.075528
 H        -1.995015         0.135383        -0.954156
 H        -2.586270        -0.906556         0.337735
 H        -3.544119         1.966844         0.691886
 H        -3.624157         0.967981         3.029724
 H        -2.172284         3.108086         2.557641
 H        -0.787578         2.155741         3.506993
 H        -0.870132         2.686116         0.380949
 H         0.075805         0.001220         2.911608
 H        -0.368375        -1.391811         1.942963
