19
Iteration:  1665
 O         0.519997         0.117337         0.212553
 C        -0.805005         0.374583         0.865247
 C        -2.114962         0.185835         0.061638
 C        -2.656717         1.335148         0.895655
 C        -2.649419         0.990819         2.552188
 C        -1.527120         2.116530         2.723090
 C        -1.257084         1.912422         1.218719
 O        -2.112402        -0.322078         2.732467
 C        -0.905235        -0.596933         2.034161
 H         0.423126         0.406396        -0.713872
 H        -1.977548         0.536852        -0.941842
 H        -2.560012        -0.798126         0.015564
 H        -3.615707         1.861750         0.767601
 H        -3.537231         1.090671         3.087581
 H        -1.745427         3.172816         2.806989
 H        -0.785588         1.612663         3.375582
 H        -0.637123         2.505107         0.655771
 H        -0.075712        -0.569588         2.675043
 H        -0.918780        -1.477046         1.512357
