19
Iteration:  1369charge 0 multiplicity 1
 O         0.432119         0.132178         0.089452
 C        -0.751058         0.330075         0.830997
 C        -2.140315         0.156236         0.086750
 C        -2.640113         1.320191         0.912237
 C        -2.630379         0.985919         2.498845
 C        -1.550338         2.050719         2.751966
 C        -1.159486         1.828269         1.244043
 O        -2.184901        -0.296396         2.657956
 C        -0.834932        -0.494125         2.192131
 H         0.604867         0.896124        -0.460660
 H        -1.875577         0.491158        -0.999598
 H        -2.647796        -0.878838         0.066973
 H        -3.548492         1.970629         0.605316
 H        -3.539202         1.187106         3.124271
 H        -1.793172         3.089978         3.086551
 H        -0.904123         1.556687         3.557919
 H        -0.779614         2.701517         0.519095
 H        -0.098163        -0.081543         2.854696
 H        -0.792545        -1.552960         2.041672
