19
Iteration:  3151
 O         0.410718         0.291158         0.042105
 C        -0.748372         0.276707         0.838203
 C        -2.075087         0.181530        -0.001404
 C        -2.585176         1.381001         0.867946
 C        -2.692946         1.015158         2.540240
 C        -1.632550         2.057238         2.806684
 C        -1.146362         1.823658         1.257032
 O        -2.176287        -0.326157         2.785934
 C        -0.820736        -0.600164         2.117920
 H         0.587610        -0.624713        -0.275855
 H        -1.819076         0.580157        -0.997129
 H        -2.738634        -0.742467        -0.060330
 H        -3.301414         2.044806         0.479647
 H        -3.672186         1.047219         2.999928
 H        -1.926014         3.105274         2.732709
 H        -1.230382         1.956325         3.803059
 H        -0.422706         2.559477         0.909008
 H         0.161314        -0.466376         2.631678
 H        -0.873579        -1.628648         1.970252
