19
Iteration:  2977charge 0 multiplicity 1
 O         0.439918         0.022214         0.221078
 C        -0.746455         0.400106         0.816085
 C        -2.124423         0.294190         0.094012
 C        -2.738309         1.316610         0.979283
 C        -2.652332         0.904222         2.516677
 C        -1.449908         2.051760         2.693072
 C        -1.224598         1.927394         1.200299
 O        -2.175461        -0.368019         2.678208
 C        -0.828165        -0.483044         2.072556
 H         0.782091         0.722950        -0.341351
 H        -1.956492         0.674277        -0.878142
 H        -2.460668        -0.704206        -0.097445
 H        -3.512577         1.991965         0.581475
 H        -3.560149         0.950629         3.117544
 H        -2.016217         2.995291         2.935772
 H        -0.622110         1.911863         3.462934
 H        -0.730883         2.670412         0.509021
 H        -0.044118        -0.207425         2.774753
 H        -0.840335        -1.531310         1.648514
