19
Iteration:   992charge 0 multiplicity 1
 O         0.498079         0.320093         0.169066
 C        -0.830657         0.396827         0.860377
 C        -2.177706         0.173709         0.136118
 C        -2.683938         1.348160         1.023053
 C        -2.587094         1.019216         2.524900
 C        -1.397136         1.956343         2.610662
 C        -1.118012         1.900628         1.192511
 O        -2.266920        -0.434710         2.599842
 C        -0.973427        -0.574329         2.068192
 H         1.055765        -0.249724         0.747468
 H        -1.954703         0.638922        -0.903095
 H        -2.852998        -0.672697         0.340916
 H        -3.532923         1.825696         0.668287
 H        -3.381570         1.155290         3.226047
 H        -1.827884         2.958027         2.987156
 H        -0.605198         1.727008         3.390458
 H        -0.450765         2.616539         0.506053
 H        -0.075463        -0.366738         2.622588
 H        -0.762118        -1.555411         1.674468
