19
Iteration:  4533
 O         0.336666         0.147440        -0.003439
 C        -0.775446         0.326168         0.853089
 C        -2.108457         0.092612         0.086065
 C        -2.631891         1.245627         0.908354
 C        -2.646018         0.955673         2.512405
 C        -1.615437         2.179853         2.596453
 C        -1.278789         1.901489         1.192497
 O        -2.057285        -0.260570         2.847961
 C        -0.727111        -0.516148         2.150839
 H         1.102721         0.520500         0.458526
 H        -2.028687         0.086831        -0.958623
 H        -2.523492        -0.867308         0.429040
 H        -3.502036         1.783374         0.606531
 H        -3.619141         1.063875         2.988990
 H        -2.256541         3.051933         2.897833
 H        -0.893104         2.105427         3.384288
 H        -0.694021         2.557180         0.573861
 H         0.056637        -0.260349         3.020458
 H        -0.614750        -1.567720         2.042788
