19
Iteration:   827
 O         0.446745         0.175054         0.134968
 C        -0.749282         0.375564         0.828805
 C        -2.118577         0.299713         0.033833
 C        -2.710874         1.477054         0.916799
 C        -2.641614         1.029498         2.477938
 C        -1.540767         1.993487         2.817732
 C        -1.175027         1.849667         1.312223
 O        -2.131072        -0.382065         2.676216
 C        -0.892791        -0.681000         1.975110
 H         0.770444        -0.729566         0.361317
 H        -1.912517         0.883133        -0.837488
 H        -2.684396        -0.632750         0.072254
 H        -3.397893         2.141774         0.590672
 H        -3.538533         1.097200         3.026893
 H        -1.894463         3.081640         2.985161
 H        -0.970832         1.773545         3.785414
 H        -0.542924         2.681014         0.861455
 H         0.032296        -0.503661         2.670514
 H        -0.864110        -1.719592         1.709102
