19
Iteration:  1213
 O         0.401346         0.067425         0.039818
 C        -0.733653         0.383987         0.776465
 C        -2.089293         0.198045         0.073259
 C        -2.586436         1.394968         0.994607
 C        -2.646850         0.965624         2.495624
 C        -1.565303         1.950993         2.788153
 C        -1.123713         1.855917         1.213077
 O        -2.237232        -0.350063         2.648633
 C        -0.828266        -0.453306         2.251979
 H         0.469424         0.742574        -0.682590
 H        -1.992772         0.380245        -1.095571
 H        -2.585789        -0.763851         0.095212
 H        -3.272735         2.075780         0.603455
 H        -3.634555         1.110838         2.977223
 H        -1.947664         2.971240         3.025470
 H        -0.861469         1.779391         3.647545
 H        -0.869865         2.907550         0.764725
 H        -0.300801         0.149406         3.058600
 H        -0.644527        -1.510925         2.030076
