19
Iteration:  3696
 O         0.447331         0.228923        -0.011010
 C        -0.720857         0.343968         0.799985
 C        -2.030875         0.080614         0.008346
 C        -2.698786         1.238277         0.989545
 C        -2.679319         0.982499         2.493662
 C        -1.583851         2.130368         2.696346
 C        -1.216113         1.825988         1.188487
 O        -2.145169        -0.271748         2.861426
 C        -0.873256        -0.475478         2.180556
 H         0.528604        -0.754311        -0.099782
 H        -1.828405         0.629126        -1.005157
 H        -2.444152        -0.916867         0.177137
 H        -3.493842         1.939475         0.676892
 H        -3.703006         0.995075         3.067859
 H        -2.159243         3.033849         2.784667
 H        -0.825702         2.029386         3.446504
 H        -0.676913         2.728423         0.715823
 H         0.011711        -0.123661         2.887764
 H        -0.505848        -1.499256         2.016522
