19
Iteration:  3051charge 0 multiplicity 1
 O         0.463103         0.268457         0.159651
 C        -0.759298         0.336996         0.834566
 C        -2.092496         0.226055         0.039626
 C        -2.578611         1.356301         0.947846
 C        -2.657271         0.953209         2.542921
 C        -1.556841         2.140912         2.783712
 C        -1.187602         1.819887         1.237707
 O        -2.126671        -0.310401         2.740002
 C        -0.937881        -0.669465         2.015099
 H         0.484460        -0.648910        -0.204690
 H        -1.888648         0.452616        -1.049371
 H        -2.679093        -0.709510         0.202192
 H        -3.516640         1.760014         0.547414
 H        -3.653478         0.872480         2.983312
 H        -2.101683         3.096200         2.629856
 H        -0.783551         2.246846         3.515473
 H        -0.770805         2.622577         0.571129
 H        -0.033722        -0.524281         2.677017
 H        -1.091543        -1.569502         1.483500
