19
Iteration:  1400charge 0 multiplicity 1
 O         0.471314         0.096907         0.359182
 C        -0.851461         0.460419         0.773057
 C        -2.195021         0.261414        -0.042787
 C        -2.704442         1.284889         0.916048
 C        -2.547381         0.968647         2.546667
 C        -1.504846         2.124289         2.603689
 C        -1.185988         1.825562         1.154405
 O        -2.106881        -0.393274         2.852828
 C        -0.882069        -0.566126         1.997484
 H         0.897618         0.771359        -0.230671
 H        -1.974335         0.648515        -1.032765
 H        -2.603809        -0.695768        -0.227646
 H        -3.570600         1.920844         0.627563
 H        -3.325517         1.082422         3.341874
 H        -1.969944         3.084593         2.858761
 H        -0.923365         1.975998         3.551886
 H        -0.863189         2.644245         0.573576
 H         0.019111        -0.573371         2.690161
 H        -0.959135        -1.547777         1.641867
