19
Iteration:  1315
 O         0.422277         0.094889         0.193484
 C        -0.774646         0.345456         0.849131
 C        -2.134976         0.252783         0.018948
 C        -2.652192         1.351580         0.942347
 C        -2.670563         0.941663         2.481320
 C        -1.482621         2.149822         2.726233
 C        -1.270004         1.885526         1.259177
 O        -2.108202        -0.356748         2.703836
 C        -0.815269        -0.577309         2.140551
 H         0.364834         0.043903        -0.755684
 H        -1.726995         0.711304        -0.981335
 H        -2.669000        -0.784586        -0.144888
 H        -3.577192         2.003182         0.627792
 H        -3.664691         1.139729         2.906405
 H        -1.990586         3.138384         2.809768
 H        -0.778983         1.912392         3.561952
 H        -0.575378         2.689097         0.677619
 H         0.087899        -0.325359         2.711760
 H        -0.789018        -1.650674         1.786063
