19
Iteration:  2498charge 0 multiplicity 1
 O         0.497186         0.162318         0.200020
 C        -0.799164         0.294043         0.843163
 C        -2.197237         0.199508         0.021559
 C        -2.611924         1.299768         0.883830
 C        -2.637287         1.013054         2.539865
 C        -1.510241         2.098817         2.674526
 C        -1.213866         1.809426         1.263726
 O        -2.102305        -0.301299         2.789530
 C        -0.955036        -0.557626         2.016505
 H         0.653308         0.917179        -0.413385
 H        -1.799448         0.586989        -0.888610
 H        -2.577659        -0.772495        -0.184781
 H        -3.318755         2.107328         0.589752
 H        -3.532158         1.004894         3.320424
 H        -1.887869         3.104591         2.932264
 H        -0.760347         1.773881         3.491005
 H        -0.907265         2.650509         0.618008
 H         0.001534        -0.563732         2.566414
 H        -0.989757        -1.588050         1.784121
