19
Iteration:  4674
 O         0.338869         0.295799         0.114294
 C        -0.793922         0.300200         0.913620
 C        -2.165611         0.049337         0.156215
 C        -2.632137         1.272384         0.919200
 C        -2.578424         1.001757         2.448179
 C        -1.593579         2.169914         2.590486
 C        -1.235290         1.826666         1.192698
 O        -2.106482        -0.277469         2.748980
 C        -0.687990        -0.518083         2.168363
 H         0.567425        -0.514979        -0.353179
 H        -1.999076         0.258838        -0.902874
 H        -2.551587        -1.028415         0.321903
 H        -3.548191         1.705543         0.665223
 H        -3.571563         0.945850         2.807607
 H        -2.021764         3.178633         2.644013
 H        -1.031620         2.053415         3.499346
 H        -0.703621         2.549867         0.572681
 H         0.048508        -0.185295         2.787291
 H        -0.561243        -1.586225         2.042808
