19
Iteration:   526
 O         0.390770         0.184414         0.044348
 C        -0.742609         0.307337         0.877992
 C        -2.079634         0.251969        -0.004032
 C        -2.538614         1.367846         0.966810
 C        -2.706203         1.032002         2.540292
 C        -1.566992         2.076342         2.861823
 C        -1.137771         1.749726         1.260440
 O        -2.196610        -0.366742         2.558267
 C        -0.852992        -0.533057         2.238506
 H         0.008827        -0.070021        -0.836784
 H        -1.845758         0.556068        -0.980031
 H        -2.529660        -0.727970        -0.138501
 H        -3.198307         2.258184         0.638509
 H        -3.793074         0.899465         2.995733
 H        -1.838921         3.079567         3.000392
 H        -0.870026         2.000923         3.690343
 H        -0.657332         2.465697         0.669754
 H        -0.134059        -0.056150         2.974500
 H        -0.648062        -1.630708         2.001204
