19
Iteration:  4824charge 0 multiplicity 1
 O         0.407026         0.130705         0.135671
 C        -0.818251         0.337411         0.796405
 C        -2.131637         0.150663         0.119457
 C        -2.706956         1.263805         1.006387
 C        -2.597009         1.009564         2.488777
 C        -1.524568         2.118104         2.559020
 C        -1.263556         1.860315         1.089142
 O        -2.125048        -0.429984         2.783370
 C        -0.769791        -0.435933         2.234593
 H         1.097732         0.760718         0.349484
 H        -2.225377         0.616111        -0.856301
 H        -2.659171        -0.781764        -0.018095
 H        -3.463486         1.865145         0.499165
 H        -3.423521         1.054067         3.119295
 H        -1.926491         3.122927         2.604074
 H        -0.685913         1.959400         3.295735
 H        -0.832427         2.611478         0.365919
 H        -0.184001         0.215691         2.885664
 H        -0.369964        -1.409134         2.086434
