19
Iteration:   496
 O         0.444263         0.243033         0.125716
 C        -0.751789         0.444627         0.853678
 C        -2.120900         0.264575         0.121731
 C        -2.634357         1.407422         0.903495
 C        -2.651881         0.950050         2.419920
 C        -1.486910         1.882368         2.764557
 C        -1.108211         1.825922         1.245569
 O        -2.214476        -0.336011         2.687888
 C        -0.935557        -0.539262         2.110563
 H         0.377034        -0.567404        -0.379299
 H        -2.094441         0.229056        -0.939072
 H        -2.474403        -0.697711         0.584850
 H        -3.423059         2.014682         0.657090
 H        -3.703253         1.111049         2.766723
 H        -1.818184         2.947294         2.920738
 H        -0.648084         1.681602         3.587928
 H        -0.507473         2.591382         0.811654
 H        -0.164266        -0.230200         2.803558
 H        -0.843739        -1.526801         1.692632
