19
Iteration:   242charge 0 multiplicity 1
 O         0.432862         0.119107         0.068534
 C        -0.704519         0.411415         0.851586
 C        -2.079293         0.232859         0.158765
 C        -2.561734         1.526197         0.968679
 C        -2.677361         0.972380         2.512252
 C        -1.593731         1.916572         2.832663
 C        -1.109987         1.883560         1.288129
 O        -2.227847        -0.414700         2.558635
 C        -0.881140        -0.515371         2.084007
 H         0.172979        -0.192570        -0.816425
 H        -1.925142         0.484180        -0.933627
 H        -2.629821        -0.805025         0.130496
 H        -3.142840         2.262203         0.590862
 H        -3.630577         0.948411         3.112114
 H        -2.083507         2.885985         2.942681
 H        -1.009382         1.942197         3.804573
 H        -0.659076         2.632305         0.718739
 H        -0.183912        -0.129207         2.857505
 H        -0.790597        -1.546175         1.763614
