19
Iteration:   326charge 0 multiplicity 1
 O         0.521732         0.083278         0.272951
 C        -0.738426         0.393695         0.760765
 C        -2.184879         0.286547        -0.040529
 C        -2.587893         1.313571         0.994563
 C        -2.598289         0.981170         2.543906
 C        -1.512698         2.019631         2.804262
 C        -1.224017         1.916651         1.219961
 O        -2.171855        -0.345152         2.731111
 C        -0.975457        -0.588308         1.936971
 H         1.012468         0.929377         0.321984
 H        -2.147005         0.718627        -1.065344
 H        -2.678765        -0.594579         0.014657
 H        -3.463132         2.062948         0.667088
 H        -3.541250         1.125660         3.019455
 H        -1.924657         3.013836         3.079520
 H        -0.709486         1.669836         3.410888
 H        -0.889872         2.688219         0.431596
 H        -0.152285        -0.831445         2.555108
 H        -1.138548        -1.588325         1.427240
