19
Iteration:  1647
 O         0.382168         0.064820         0.158202
 C        -0.772087         0.334370         0.839407
 C        -2.095747         0.245459         0.009252
 C        -2.628159         1.372265         0.942050
 C        -2.636897         0.951617         2.400678
 C        -1.611005         2.018678         2.762472
 C        -1.156941         1.873763         1.259512
 O        -2.098289        -0.296999         2.783504
 C        -0.818915        -0.509404         2.100118
 H         0.300864         0.411071        -0.754768
 H        -1.996675         0.672450        -1.026240
 H        -2.662081        -0.693335         0.248362
 H        -3.279539         2.088425         0.474779
 H        -3.644721         0.948331         2.935193
 H        -2.270271         2.952667         2.882728
 H        -0.878099         1.921397         3.570770
 H        -0.743159         2.844413         0.689102
 H         0.181197        -0.333372         2.771215
 H        -0.806804        -1.657785         1.945624
