19
Iteration:   558charge 0 multiplicity 1
 O         0.479713         0.016282         0.236696
 C        -0.768901         0.420175         0.808377
 C        -2.138539         0.299097         0.042734
 C        -2.585694         1.441006         0.952940
 C        -2.682418         0.967218         2.501713
 C        -1.595615         2.039696         2.779943
 C        -1.146793         1.952722         1.152625
 O        -2.124481        -0.411787         2.758313
 C        -0.890804        -0.568351         2.005683
 H         0.496949         0.460512        -0.618982
 H        -2.078479         0.633989        -1.039588
 H        -2.682545        -0.671843         0.098604
 H        -3.453579         2.158643         0.651557
 H        -3.624311         0.793510         3.114124
 H        -2.078265         2.945474         2.998732
 H        -0.896463         1.708923         3.485990
 H        -0.669671         2.840205         0.815852
 H        -0.020386        -0.669478         2.687707
 H        -0.864454        -1.608694         1.524542
