19
Iteration:     9
 O         0.421975         0.164956         0.120082
 C        -0.789224         0.390757         0.823974
 C        -2.174802         0.252232        -0.019617
 C        -2.575197         1.406110         0.924269
 C        -2.631791         0.997332         2.562603
 C        -1.496316         1.955629         2.798427
 C        -1.178071         1.876484         1.266904
 O        -2.244645        -0.408563         2.680300
 C        -0.813424        -0.535724         2.002976
 H         1.093497         0.455936         0.749353
 H        -2.228159         0.739549        -1.148006
 H        -2.631272        -0.730366        -0.006305
 H        -3.355084         1.999595         0.615679
 H        -3.517190         1.147910         3.130199
 H        -1.864749         2.942360         3.246257
 H        -0.801042         1.565843         3.582922
 H        -0.651439         2.721584         0.742614
 H         0.049606        -0.594693         2.921750
 H        -0.928162        -1.580216         1.596892
