19
Iteration:  1825charge 0 multiplicity 1
 O         0.576558         0.252993         0.301900
 C        -0.781402         0.359908         0.757018
 C        -2.154705         0.216092         0.102983
 C        -2.724064         1.295297         0.989662
 C        -2.579248         1.091704         2.551567
 C        -1.374265         2.003382         2.643070
 C        -1.236934         1.835496         1.110752
 O        -2.239456        -0.416707         2.765453
 C        -0.950596        -0.554942         2.013614
 H         0.644041         0.077252        -0.628807
 H        -2.304614         0.650899        -0.924208
 H        -2.494412        -0.811554         0.037576
 H        -3.598293         1.828867         0.744854
 H        -3.479647         1.299763         3.073325
 H        -1.813583         2.904121         2.911000
 H        -0.559453         1.749370         3.279638
 H        -0.830829         2.845426         0.665215
 H        -0.172141        -0.410984         2.671174
 H        -1.064450        -1.591283         1.638280
