19
Iteration:  2162charge 0 multiplicity 1
 O         0.454009         0.117121         0.077936
 C        -0.755419         0.324901         0.838960
 C        -2.210394         0.155651         0.077963
 C        -2.580338         1.359991         0.989626
 C        -2.694870         1.015915         2.460641
 C        -1.546808         2.068300         2.752852
 C        -1.113406         1.805087         1.218521
 O        -2.164169        -0.370451         2.662375
 C        -0.871821        -0.438033         2.210371
 H         0.484349         0.788940        -0.614426
 H        -1.978576         0.378285        -1.007461
 H        -2.700044        -0.828388         0.251762
 H        -3.211722         2.133720         0.648946
 H        -3.563784         1.079760         3.075455
 H        -2.012132         3.196578         2.725585
 H        -0.988936         1.838341         3.728491
 H        -0.728961         2.524604         0.518424
 H         0.146946        -0.148314         2.811067
 H        -0.705847        -1.533900         1.990170
