19
Iteration:  3349charge 0 multiplicity 1
 O         0.580140         0.306923         0.074382
 C        -0.814244         0.286831         0.825881
 C        -2.157026         0.217511        -0.025928
 C        -2.659644         1.276403         0.959694
 C        -2.687866         0.960721         2.547072
 C        -1.509815         2.055652         2.750726
 C        -1.192746         1.776485         1.204515
 O        -2.210545        -0.281860         2.839689
 C        -0.879121        -0.522908         2.096271
 H         0.921032        -0.601488        -0.035225
 H        -1.898915         0.510264        -1.061302
 H        -2.664003        -0.815101        -0.242456
 H        -3.449049         2.007201         0.700049
 H        -3.749880         1.183674         2.913724
 H        -1.925005         3.064284         2.747009
 H        -0.630055         1.844013         3.389512
 H        -0.579983         2.594138         0.770413
 H         0.026811        -0.271562         2.579118
 H        -1.057482        -1.631657         1.881437
