19
Iteration:    16charge 0 multiplicity 1
 O         0.506372         0.169388         0.186577
 C        -0.790471         0.434090         0.755339
 C        -2.249971         0.208678        -0.075113
 C        -2.603338         1.394274         0.892166
 C        -2.639337         1.019334         2.591124
 C        -1.439645         1.917564         2.848273
 C        -1.182154         1.926129         1.250603
 O        -2.299790        -0.415494         2.723483
 C        -0.800915        -0.573264         2.007505
 H         1.129816         0.774820         0.666397
 H        -2.237687         0.466339        -1.099347
 H        -2.790001        -0.754866         0.090835
 H        -3.426373         2.181215         0.491465
 H        -3.584169         1.245254         3.202581
 H        -1.697106         2.881120         3.266789
 H        -0.666894         1.347948         3.390186
 H        -0.681543         2.718199         0.687473
 H         0.047220        -0.455197         2.597926
 H        -0.831424        -1.506826         1.464238
