19
Iteration:  3579charge 0 multiplicity 1
 O         0.461039         0.140952         0.147568
 C        -0.765573         0.291181         0.780098
 C        -2.179917         0.172265         0.077272
 C        -2.680807         1.287018         0.901783
 C        -2.676692         1.007472         2.487063
 C        -1.633916         2.108301         2.665566
 C        -1.160071         1.766837         1.199677
 O        -2.053950        -0.281938         2.860992
 C        -0.796388        -0.506188         2.066946
 H         0.766130         1.057571         0.199068
 H        -2.189725         0.289444        -1.013890
 H        -2.756319        -0.682887         0.445518
 H        -3.331804         2.109624         0.565666
 H        -3.650774         1.210639         2.976966
 H        -2.185086         3.107524         2.565416
 H        -0.910136         2.042207         3.547856
 H        -0.697718         2.443277         0.427060
 H        -0.016242        -0.343399         2.739171
 H        -0.714588        -1.622352         1.832416
