19
Iteration:  2747charge 0 multiplicity 1
 O         0.390986         0.030989         0.114293
 C        -0.729600         0.327286         0.846380
 C        -2.086846         0.260549         0.051135
 C        -2.645644         1.332286         0.914037
 C        -2.710093         0.899393         2.468180
 C        -1.460016         2.103809         2.788487
 C        -1.233097         1.948097         1.263828
 O        -2.142042        -0.353718         2.697427
 C        -0.833724        -0.458412         2.138196
 H         0.306516         0.432659        -0.766388
 H        -1.788061         0.805065        -0.901267
 H        -2.718454        -0.660470         0.022088
 H        -3.546039         1.896715         0.516761
 H        -3.743411         0.911040         2.880284
 H        -1.949703         2.997703         3.110900
 H        -0.768361         1.699225         3.516590
 H        -0.602073         2.627159         0.690169
 H        -0.128951        -0.055129         2.922086
 H        -0.553233        -1.566885         1.940960
