19
Iteration:  1619charge 0 multiplicity 1
 O         0.406859        -0.018171         0.052657
 C        -0.721585         0.342352         0.878657
 C        -2.157418         0.251098         0.004016
 C        -2.706716         1.356196         0.946237
 C        -2.633464         0.959458         2.459111
 C        -1.614962         2.093699         2.825995
 C        -1.123547         1.819714         1.276005
 O        -2.126631        -0.342249         2.620926
 C        -0.771904        -0.416288         2.259658
 H         0.498853         0.613186        -0.713036
 H        -2.041443         0.602666        -1.056453
 H        -2.728921        -0.671317         0.001809
 H        -3.361474         2.211799         0.602543
 H        -3.584336         0.980681         3.033196
 H        -2.277898         2.960561         2.650459
 H        -0.833368         1.866486         3.584938
 H        -0.630985         2.607669         0.813947
 H        -0.116070         0.085387         2.942191
 H        -0.548359        -1.490981         2.127126
