19
Iteration:  1162
 O         0.573612         0.112672         0.242711
 C        -0.804678         0.409884         0.770072
 C        -2.165926         0.308674        -0.026519
 C        -2.634169         1.341439         1.001552
 C        -2.575367         0.917301         2.519905
 C        -1.569980         2.104250         2.681204
 C        -1.185494         1.855803         1.258365
 O        -2.127619        -0.360899         2.815582
 C        -0.966321        -0.622743         2.005769
 H         0.551484         0.160080        -0.750795
 H        -2.109080         0.711757        -0.986053
 H        -2.761599        -0.619655        -0.059715
 H        -3.574855         1.909843         0.700769
 H        -3.463902         1.099210         3.086966
 H        -2.141548         3.024425         2.771078
 H        -0.838663         2.247453         3.485357
 H        -0.631052         2.584257         0.684284
 H        -0.096796        -0.474040         2.593286
 H        -1.135648        -1.566321         1.589991
