19
Iteration:  4996
 O         0.489652         0.210920         0.083774
 C        -0.852939         0.319500         0.856628
 C        -2.127848         0.112690        -0.026799
 C        -2.701961         1.217519         0.940214
 C        -2.629341         0.935975         2.530150
 C        -1.511545         2.178004         2.636020
 C        -1.259484         1.751910         1.146873
 O        -2.074324        -0.239448         2.955698
 C        -0.858973        -0.534719         2.105852
 H         0.939097         1.064157         0.303943
 H        -1.972210         0.541431        -1.065637
 H        -2.678513        -0.785812        -0.124204
 H        -3.488985         1.921267         0.528388
 H        -3.542917         1.237388         3.155928
 H        -2.080927         3.093764         2.574866
 H        -0.705808         2.178929         3.405073
 H        -0.919157         2.470001         0.405920
 H         0.067721        -0.568241         2.661742
 H        -0.854708        -1.586483         1.823050
