19
Iteration:  2836
 O         0.354957         0.085385         0.117956
 C        -0.762196         0.385375         0.805709
 C        -2.025823         0.265470         0.029511
 C        -2.626782         1.326838         0.971642
 C        -2.653711         0.963789         2.459275
 C        -1.557697         2.050437         2.759625
 C        -1.197156         1.853507         1.225768
 O        -2.127574        -0.347202         2.824012
 C        -0.887867        -0.541612         2.041824
 H         0.624855         0.791067        -0.477041
 H        -1.920644         0.750793        -1.021500
 H        -2.438500        -0.806377        -0.073122
 H        -3.297872         2.123512         0.653504
 H        -3.553098         1.077938         3.081247
 H        -2.007998         3.021582         2.983241
 H        -0.886705         1.776066         3.603385
 H        -0.522078         2.553474         0.751436
 H        -0.056956        -0.210661         2.749433
 H        -0.945027        -1.655924         1.721944
