19
Iteration:  1813
 O         0.557162         0.203891         0.284297
 C        -0.806884         0.442600         0.803302
 C        -2.210022         0.135358        -0.008824
 C        -2.653324         1.351171         0.968448
 C        -2.606358         0.913596         2.577962
 C        -1.418063         1.954335         2.649320
 C        -1.220972         1.909104         1.154788
 O        -2.193990        -0.323613         2.742811
 C        -0.955950        -0.508184         2.086825
 H         0.390056         0.094957        -0.686718
 H        -2.136892         0.594025        -1.020262
 H        -2.781514        -0.793336         0.047926
 H        -3.375381         1.967336         0.515034
 H        -3.429824         1.129601         3.249550
 H        -1.667169         2.938530         2.997955
 H        -0.589207         1.681164         3.268444
 H        -0.707921         2.729340         0.473705
 H        -0.147798        -0.354575         2.707601
 H        -0.803146        -1.560077         1.801047
