19
Iteration:  2010charge 0 multiplicity 1
 O         0.414267         0.034465         0.227171
 C        -0.797544         0.359456         0.791535
 C        -2.116454         0.259114        -0.007690
 C        -2.632207         1.371400         0.972632
 C        -2.633632         0.999209         2.503518
 C        -1.556476         2.140498         2.769458
 C        -1.227374         1.857179         1.209930
 O        -2.121043        -0.387593         2.728563
 C        -0.794014        -0.547190         2.077159
 H         0.673389         0.539958        -0.545875
 H        -2.089027         0.644257        -1.030530
 H        -2.679538        -0.642699        -0.034526
 H        -3.427142         1.985016         0.676409
 H        -3.501175         1.041694         3.086314
 H        -2.238767         3.008188         3.034504
 H        -0.749396         1.885362         3.501836
 H        -0.807823         2.513397         0.446617
 H         0.043031        -0.241707         2.709886
 H        -0.718947        -1.481528         1.633081
