19
Iteration:  3498
 O         0.559644         0.207122         0.244834
 C        -0.854169         0.320121         0.723146
 C        -2.159183         0.150554         0.042641
 C        -2.682253         1.279175         0.936029
 C        -2.646693         1.007987         2.552430
 C        -1.555807         2.095699         2.693778
 C        -1.259233         1.789083         1.183493
 O        -2.056847        -0.291853         2.788964
 C        -0.863359        -0.503574         2.071939
 H         0.543219        -0.544289        -0.375082
 H        -2.082342         0.583728        -1.023607
 H        -2.793392        -0.759734        -0.098445
 H        -3.334336         2.020188         0.489815
 H        -3.662447         1.094165         3.033718
 H        -1.925442         3.134970         2.835330
 H        -0.811198         2.076600         3.521920
 H        -0.753023         2.576083         0.547964
 H        -0.136157        -0.110614         2.708540
 H        -0.733029        -1.497291         1.945974
