19
Iteration:    18charge 0 multiplicity 1
 O         0.527224         0.173917         0.202520
 C        -0.790493         0.440592         0.743632
 C        -2.257252         0.200224        -0.063804
 C        -2.625310         1.399553         0.889975
 C        -2.646362         1.015518         2.588383
 C        -1.421099         1.903667         2.848909
 C        -1.184594         1.927490         1.249744
 O        -2.302803        -0.411926         2.731437
 C        -0.829080        -0.577685         1.994395
 H         1.111648         0.820616         0.609224
 H        -2.218224         0.446719        -1.228329
 H        -2.803411        -0.729131         0.123205
 H        -3.372818         2.153110         0.516704
 H        -3.556462         1.231351         3.171369
 H        -1.658651         2.922771         3.288219
 H        -0.622883         1.329967         3.361619
 H        -0.676077         2.745440         0.661874
 H         0.159795        -0.391171         2.640422
 H        -0.808023        -1.552315         1.457296
