19
Iteration:  2388charge 0 multiplicity 1
 O         0.508737         0.247520         0.288541
 C        -0.792400         0.274046         0.844336
 C        -2.171666         0.185048        -0.083977
 C        -2.650049         1.313296         0.944603
 C        -2.607657         1.019260         2.522711
 C        -1.470400         2.127117         2.671537
 C        -1.231826         1.833972         1.210969
 O        -2.136436        -0.302848         2.832811
 C        -0.949535        -0.666029         2.018735
 H         0.406857         0.310681        -0.669672
 H        -2.045172         0.743969        -0.968017
 H        -2.686741        -0.721364        -0.386879
 H        -3.590019         1.873593         0.817012
 H        -3.493912         1.333950         3.156462
 H        -1.683559         3.166148         2.928641
 H        -0.656485         1.829097         3.413051
 H        -0.543301         2.519741         0.687619
 H         0.065866        -0.670708         2.604289
 H        -1.143872        -1.654418         1.502099
