19
Iteration:  2293charge 0 multiplicity 1
 O         0.428862         0.144031         0.064038
 C        -0.741722         0.298503         0.851118
 C        -2.080309         0.162681         0.117009
 C        -2.571372         1.372176         0.927624
 C        -2.623452         1.057328         2.522858
 C        -1.506243         2.074702         2.729647
 C        -1.202201         1.810550         1.256920
 O        -2.235970        -0.353560         2.695385
 C        -0.907770        -0.511582         2.132540
 H         0.564280         0.935137        -0.458206
 H        -2.174077         0.110988        -1.015606
 H        -2.544879        -0.827031         0.331325
 H        -3.314560         1.995816         0.439610
 H        -3.643373         0.961360         2.930074
 H        -1.843156         3.069090         2.953260
 H        -0.826956         1.877372         3.533927
 H        -0.872098         2.664621         0.646468
 H        -0.112848        -0.179070         2.750563
 H        -0.620229        -1.546740         1.846892
