19
Iteration:  4818charge 0 multiplicity 1
 O         0.383765         0.110830         0.087751
 C        -0.802254         0.308871         0.878051
 C        -2.178520         0.141192         0.102265
 C        -2.665615         1.293704         0.946010
 C        -2.594487         1.001342         2.465809
 C        -1.520895         2.084120         2.550479
 C        -1.249692         1.917746         1.102125
 O        -2.124122        -0.442079         2.789791
 C        -0.753913        -0.386521         2.277086
 H         1.160784         0.704693         0.202964
 H        -2.035914         0.658828        -0.895405
 H        -2.655033        -0.888584         0.013904
 H        -3.580140         1.879027         0.606506
 H        -3.603725         1.092677         3.045933
 H        -2.005299         3.053299         2.900266
 H        -0.804763         1.970202         3.336258
 H        -1.021624         2.667062         0.375503
 H        -0.141704         0.125668         3.071991
 H        -0.183489        -1.414315         1.998012
