19
Iteration:  4023charge 0 multiplicity 1
 O         0.405182         0.319057         0.254708
 C        -0.829018         0.383500         0.918679
 C        -2.169693         0.105268         0.071521
 C        -2.722644         1.205857         0.835070
 C        -2.575731         0.982118         2.538095
 C        -1.540525         2.121836         2.555589
 C        -1.266758         1.836640         1.061525
 O        -1.993553        -0.251673         2.878775
 C        -0.853357        -0.610893         2.116563
 H         0.508632        -0.435762        -0.358851
 H        -2.010432         0.460220        -1.008987
 H        -2.616308        -0.858950         0.187595
 H        -3.630360         1.715047         0.554047
 H        -3.472175         1.127183         3.165904
 H        -1.785694         3.188421         2.858781
 H        -0.631184         1.841988         3.190216
 H        -0.671506         2.433251         0.346364
 H         0.157607        -0.372729         2.633413
 H        -0.839957        -1.572461         1.703338
