19
Iteration:  4610charge 0 multiplicity 1
 O         0.493757         0.117961         0.259741
 C        -0.796963         0.404264         0.795222
 C        -2.141844         0.114520         0.111092
 C        -2.719172         1.257022         0.929386
 C        -2.608911         0.978044         2.582565
 C        -1.544647         2.132892         2.589156
 C        -1.383009         1.824507         1.143279
 O        -2.035241        -0.325550         2.707325
 C        -0.784627        -0.405584         2.108178
 H         0.233698        -0.160172        -0.628814
 H        -2.032525         0.271026        -0.905119
 H        -2.470171        -0.913249         0.209201
 H        -3.610224         1.819833         0.757678
 H        -3.427276         1.089435         3.295084
 H        -1.848472         3.199674         2.665447
 H        -0.695618         2.055913         3.247997
 H        -1.055461         2.617091         0.495888
 H         0.076322         0.002345         2.812674
 H        -0.650328        -1.443396         2.034924
