19
Iteration:  3215charge 0 multiplicity 1
 O         0.538238         0.132488         0.280709
 C        -0.796564         0.375786         0.786672
 C        -2.082612         0.123749         0.067564
 C        -2.671817         1.348311         1.082895
 C        -2.616477         0.989900         2.529643
 C        -1.466606         2.116567         2.735742
 C        -1.205010         1.897300         1.171130
 O        -2.264772        -0.376360         2.613761
 C        -0.887019        -0.539357         2.014946
 H         0.654880         0.471542        -0.614948
 H        -2.193378         0.570350        -0.999361
 H        -2.560252        -0.947773         0.204556
 H        -3.524252         1.890301         0.728413
 H        -3.487003         1.007689         3.153216
 H        -1.862240         3.156739         2.767065
 H        -0.639637         2.067902         3.415623
 H        -0.832165         2.756202         0.599945
 H        -0.220764        -0.301629         2.799715
 H        -0.893435        -1.635397         1.537390
