19
Iteration:  1267
 O         0.518131         0.135374         0.343074
 C        -0.810883         0.354667         0.808952
 C        -2.155619         0.238033        -0.019801
 C        -2.695281         1.334639         0.944206
 C        -2.618208         0.977974         2.501592
 C        -1.453356         2.111271         2.710595
 C        -1.255143         1.878827         1.159765
 O        -2.075890        -0.328885         2.824183
 C        -0.986406        -0.639494         1.951455
 H         0.558866         0.870470        -0.326608
 H        -2.213134         0.560376        -1.105649
 H        -2.596543        -0.732645         0.063357
 H        -3.456020         1.914801         0.553871
 H        -3.568852         1.130233         3.023713
 H        -1.785070         3.067326         3.156716
 H        -0.582625         1.675078         3.220055
 H        -0.755018         2.593040         0.509846
 H        -0.011436        -0.540392         2.515785
 H        -0.862844        -1.630433         1.604586
