19
Iteration:  2512
 O         0.528236         0.198252         0.289278
 C        -0.772944         0.374847         0.764148
 C        -2.087172         0.158987        -0.015326
 C        -2.744730         1.308760         1.006664
 C        -2.635207         1.062737         2.588311
 C        -1.456500         2.066742         2.741591
 C        -1.227220         1.780918         1.151644
 O        -2.152348        -0.273561         2.743186
 C        -0.921633        -0.642772         1.997335
 H         0.588638         0.733834        -0.509262
 H        -2.356813         0.597812        -0.953781
 H        -2.599367        -0.784122         0.115761
 H        -3.551931         1.828449         0.513034
 H        -3.570694         1.224546         3.155746
 H        -1.756471         3.104407         2.781232
 H        -0.683508         1.853940         3.411462
 H        -0.639144         2.491495         0.533436
 H        -0.088854        -0.583594         2.697659
 H        -1.104302        -1.699023         1.493664
