19
Iteration:  1419charge 0 multiplicity 1
 O         0.566405         0.108744         0.389021
 C        -0.814891         0.329128         0.778308
 C        -2.128769         0.216055        -0.046725
 C        -2.660786         1.326119         1.008543
 C        -2.603119         0.957244         2.532510
 C        -1.512625         2.093354         2.675230
 C        -1.305636         1.887734         1.174406
 O        -2.052986        -0.281955         2.795190
 C        -0.990126        -0.598996         1.921557
 H         0.570591         0.545085        -0.482664
 H        -2.362554         0.682739        -0.969503
 H        -2.534806        -0.781189        -0.118635
 H        -3.510870         1.834181         0.805887
 H        -3.518830         1.121850         3.116108
 H        -1.922567         3.092905         2.939478
 H        -0.624609         2.223106         3.252802
 H        -0.950459         2.623221         0.495628
 H         0.029699        -0.489544         2.484984
 H        -1.088889        -1.727184         1.576608
