19
Iteration:  4947charge 0 multiplicity 1
 O         0.310680         0.100627         0.089773
 C        -0.790962         0.402061         0.871821
 C        -2.087633         0.071543         0.210337
 C        -2.672842         1.316979         0.859870
 C        -2.649071         0.968229         2.470019
 C        -1.530749         2.126297         2.657803
 C        -1.292678         1.927523         1.160171
 O        -2.049704        -0.363393         2.709547
 C        -0.800556        -0.417177         2.116123
 H         1.137969         0.220307         0.565732
 H        -1.967846         0.119065        -0.865465
 H        -2.565131        -0.949608         0.426411
 H        -3.585910         1.866506         0.688598
 H        -3.541644         1.033217         3.034060
 H        -1.950529         3.112458         2.940484
 H        -0.724674         1.831779         3.333386
 H        -0.593118         2.659894         0.733575
 H         0.058533        -0.058981         2.736045
 H        -0.455290        -1.490204         2.014981
