19
Iteration:  1916
 O         0.370381        -0.025106         0.104017
 C        -0.753701         0.351761         0.880784
 C        -2.101807         0.263735         0.097829
 C        -2.659297         1.390200         0.956069
 C        -2.654201         0.925701         2.475368
 C        -1.579945         2.081391         2.796493
 C        -1.159602         1.921538         1.242065
 O        -2.118193        -0.408515         2.600243
 C        -0.823878        -0.408446         2.154483
 H         0.707167         0.646941        -0.522759
 H        -2.030203         0.463539        -0.998688
 H        -2.556309        -0.778236         0.200425
 H        -3.512952         2.098806         0.613371
 H        -3.676741         0.939479         2.993283
 H        -1.978869         3.057835         2.936416
 H        -0.677706         1.912559         3.393428
 H        -0.541712         2.663148         0.695156
 H        -0.214537        -0.014394         2.883490
 H        -0.663283        -1.487401         1.860785
