19
Iteration:   546
 O         0.441870         0.068718         0.152878
 C        -0.782524         0.343108         0.849810
 C        -2.113644         0.295395         0.101747
 C        -2.619507         1.407025         0.971276
 C        -2.646656         0.954820         2.490384
 C        -1.604948         2.031684         2.714463
 C        -1.106463         1.919389         1.337027
 O        -2.162052        -0.382306         2.676148
 C        -0.845638        -0.571365         2.037228
 H         0.324830         0.166760        -0.807777
 H        -1.860541         0.821187        -0.893293
 H        -2.652869        -0.650839        -0.065874
 H        -3.528233         2.033423         0.588357
 H        -3.625986         1.160538         2.945494
 H        -2.147913         2.971055         2.760738
 H        -0.965540         2.067410         3.535192
 H        -0.440875         2.610349         0.800371
 H        -0.045352        -0.199814         2.702492
 H        -0.796750        -1.645435         1.714146
