19
Iteration:  2458
 O         0.398697        -0.065410         0.047991
 C        -0.805654         0.376944         0.869092
 C        -2.084933         0.188109         0.075542
 C        -2.628536         1.423067         0.992768
 C        -2.667144         0.996635         2.525843
 C        -1.604346         2.030209         2.745771
 C        -1.187602         1.886203         1.264572
 O        -2.134035        -0.367259         2.641965
 C        -0.787213        -0.397002         2.115143
 H         0.809525         0.784898        -0.167311
 H        -1.778990         0.405227        -1.021435
 H        -2.750867        -0.697959         0.062444
 H        -3.360267         2.159642         0.671689
 H        -3.695020         0.976591         2.921124
 H        -2.063953         3.002173         2.903694
 H        -0.871046         1.975420         3.495023
 H        -0.593687         2.667704         0.759096
 H        -0.141950         0.028905         2.918903
 H        -0.503705        -1.556633         1.909885
