19
Iteration:  1857charge 0 multiplicity 1
 O         0.424806         0.217331         0.281909
 C        -0.807991         0.302681         0.810049
 C        -2.166702         0.200909         0.039164
 C        -2.635196         1.370647         0.897189
 C        -2.560292         1.059849         2.506815
 C        -1.486815         2.042832         2.682959
 C        -1.229118         1.889742         1.234402
 O        -2.117617        -0.385280         2.755099
 C        -0.918945        -0.609749         2.068707
 H         0.354848         0.127864        -0.703143
 H        -1.963891         0.609865        -0.968965
 H        -2.592333        -0.788386        -0.030591
 H        -3.390697         2.028292         0.609386
 H        -3.431653         1.073005         3.093766
 H        -2.017733         2.987985         2.867377
 H        -0.639170         2.073975         3.333002
 H        -0.610383         2.676254         0.672641
 H         0.001855        -0.716125         2.600624
 H        -0.863582        -1.582486         1.634134
