19
Iteration:  4852
 O         0.482229         0.201977         0.176409
 C        -0.815242         0.373087         0.788434
 C        -2.147002        -0.017137         0.066376
 C        -2.701435         1.224680         0.973670
 C        -2.558366         1.076255         2.515623
 C        -1.551727         2.139493         2.655377
 C        -1.320297         1.856885         1.146633
 O        -2.034432        -0.235069         2.841923
 C        -0.881713        -0.576621         2.032851
 H         1.188047         0.658403         0.677733
 H        -2.246092         0.262219        -1.040280
 H        -2.681367        -0.976011         0.137331
 H        -3.483227         1.869387         0.437703
 H        -3.487135         1.092141         3.247434
 H        -2.012400         3.160617         2.689575
 H        -0.742188         1.939958         3.348463
 H        -0.932379         2.597636         0.455677
 H         0.044189        -0.521780         2.672911
 H        -0.997752        -1.584870         1.496934
