19
Iteration:  1058
 O         0.382095        -0.012159         0.073433
 C        -0.727620         0.347779         0.890227
 C        -2.039517         0.300679         0.013591
 C        -2.604424         1.361344         0.932459
 C        -2.697896         0.955037         2.486624
 C        -1.639983         2.095530         2.778158
 C        -1.233303         1.895803         1.280064
 O        -2.077401        -0.369478         2.763472
 C        -0.841317        -0.511095         2.054418
 H         0.420173         0.653568        -0.642111
 H        -1.744032         0.797455        -1.002538
 H        -2.526849        -0.693644         0.013658
 H        -3.265084         2.149326         0.716861
 H        -3.693080         0.992188         2.953821
 H        -1.996710         3.145224         2.991650
 H        -0.881033         1.798741         3.530558
 H        -0.755169         2.859269         0.732329
 H        -0.020818        -0.478048         2.761557
 H        -0.900774        -1.584082         1.890155
