19
Iteration:  1113charge 0 multiplicity 1
 O         0.445595         0.195857         0.257576
 C        -0.818899         0.357233         0.827700
 C        -2.174703         0.193927         0.068107
 C        -2.677573         1.376497         0.890233
 C        -2.623900         1.001298         2.461583
 C        -1.387618         1.937603         2.706279
 C        -1.187241         1.932088         1.183226
 O        -2.212345        -0.418428         2.722871
 C        -0.863616        -0.545873         2.074345
 H         0.567499         1.034734        -0.189561
 H        -2.030762         0.430173        -1.096505
 H        -2.715436        -0.771008         0.234462
 H        -3.546782         1.930094         0.583232
 H        -3.560498         1.235490         3.038325
 H        -1.623903         2.928621         3.188914
 H        -0.618790         1.706353         3.464916
 H        -0.504155         2.751231         0.524949
 H         0.007915        -0.163955         2.720626
 H        -0.806277        -1.675150         1.868093
