19
Iteration:  1976
 O         0.495322         0.239525         0.313481
 C        -0.789295         0.385942         0.769902
 C        -2.096452         0.208283         0.000345
 C        -2.728712         1.271929         0.992355
 C        -2.609581         1.052476         2.521930
 C        -1.479768         1.996749         2.719762
 C        -1.203785         1.816362         1.116260
 O        -2.136713        -0.302598         2.832683
 C        -0.940732        -0.624106         1.969043
 H         0.400406         0.632181        -0.559769
 H        -2.038275         0.706441        -0.962817
 H        -2.553256        -0.747137        -0.050856
 H        -3.478320         1.849896         0.572308
 H        -3.439689         1.358777         3.086684
 H        -1.715144         3.091687         3.092110
 H        -0.613489         1.718823         3.345365
 H        -0.763414         2.433821         0.346499
 H        -0.170366        -0.845050         2.698970
 H        -1.081842        -1.595155         1.590747
