19
Iteration:  3913
 O         0.511937         0.264279         0.144779
 C        -0.829505         0.293920         0.807285
 C        -2.125956         0.084061         0.083265
 C        -2.683159         1.227229         0.995502
 C        -2.681349         1.015663         2.585076
 C        -1.604868         2.186013         2.635699
 C        -1.186418         1.791406         1.130693
 O        -2.055420        -0.272578         2.783803
 C        -0.841823        -0.481211         2.088604
 H         0.792111        -0.534759        -0.313146
 H        -2.189306         0.360551        -1.011435
 H        -2.515228        -0.882750         0.326971
 H        -3.575723         1.763947         0.692611
 H        -3.536248         0.976348         3.306897
 H        -2.123161         3.117061         2.346726
 H        -0.889585         2.205025         3.463355
 H        -0.918350         2.585288         0.460479
 H         0.086774        -0.518850         2.745414
 H        -0.890544        -1.449562         1.776658
