19
Iteration:  4429
 O         0.453226         0.359789         0.156199
 C        -0.775079         0.304972         0.827048
 C        -2.113071        -0.018743         0.108523
 C        -2.762977         1.188581         0.938304
 C        -2.609960         1.085276         2.561149
 C        -1.586669         2.260709         2.569854
 C        -1.210442         1.804997         1.137744
 O        -2.099240        -0.277099         2.893803
 C        -0.736639        -0.618571         2.049885
 H         0.464282        -0.417576        -0.462679
 H        -2.273446         0.454631        -0.865583
 H        -2.629749        -0.927761         0.298616
 H        -3.521636         1.817732         0.368874
 H        -3.595259         1.071866         3.089889
 H        -2.017143         3.220464         2.731459
 H        -0.651276         2.057639         3.104307
 H        -0.700324         2.424229         0.360923
 H        -0.023114        -0.475941         2.927099
 H        -1.069710        -1.738196         1.906476
