19
Iteration:   463
 O         0.520709         0.233371         0.275400
 C        -0.822365         0.308532         0.804559
 C        -2.145624         0.364523        -0.017777
 C        -2.742544         1.323750         1.008465
 C        -2.540935         1.006340         2.556341
 C        -1.449536         2.106869         2.722795
 C        -1.225291         1.817657         1.225502
 O        -2.154305        -0.364258         2.661004
 C        -0.961599        -0.670614         1.964562
 H         0.948465        -0.604447         0.575178
 H        -2.021503         0.889862        -0.950903
 H        -2.658518        -0.628612        -0.275029
 H        -3.582643         1.881435         0.789509
 H        -3.543543         1.119775         3.040403
 H        -1.976237         3.080230         2.705010
 H        -0.520626         2.022162         3.463635
 H        -0.690254         2.438893         0.547873
 H        -0.141432        -0.563124         2.676015
 H        -0.919331        -1.735961         1.833637
