19
Iteration:  2963
 O         0.451425         0.045513         0.286923
 C        -0.820468         0.447227         0.893435
 C        -2.164997         0.207557        -0.034298
 C        -2.631550         1.395843         0.966966
 C        -2.553205         0.992496         2.519989
 C        -1.555685         2.086049         2.669040
 C        -1.274015         1.897627         1.183681
 O        -2.075524        -0.419197         2.719566
 C        -0.887117        -0.591013         1.998522
 H         0.905786         0.845017        -0.058935
 H        -2.031471         0.769964        -0.980746
 H        -2.789660        -0.694249         0.144952
 H        -3.520305         2.099448         0.820392
 H        -3.469748         1.110553         3.112855
 H        -2.007361         3.107527         2.907448
 H        -0.683705         1.884272         3.281840
 H        -0.907047         2.773026         0.538175
 H         0.062752        -0.685284         2.783594
 H        -0.825828        -1.585804         1.542963
