19
Iteration:  2511
 O         0.525289         0.195608         0.285958
 C        -0.767659         0.372314         0.761542
 C        -2.089639         0.158102        -0.014121
 C        -2.740387         1.307237         0.994173
 C        -2.635048         1.064497         2.585604
 C        -1.465348         2.070551         2.744572
 C        -1.225438         1.777820         1.158874
 O        -2.149027        -0.275366         2.747443
 C        -0.919515        -0.643600         1.996645
 H         0.570305         0.757355        -0.499288
 H        -2.352851         0.601498        -0.928651
 H        -2.625457        -0.759329         0.076208
 H        -3.536072         1.840107         0.476768
 H        -3.579912         1.190599         3.220313
 H        -1.739725         3.118858         2.789742
 H        -0.654147         1.857944         3.423914
 H        -0.651514         2.494618         0.528914
 H        -0.107905        -0.569003         2.708430
 H        -1.119382        -1.654986         1.512086
