19
Iteration:  2827
 O         0.407326         0.153089         0.126854
 C        -0.835799         0.343453         0.870656
 C        -2.034504         0.266543         0.037826
 C        -2.655653         1.359950         0.900314
 C        -2.612801         0.980892         2.496253
 C        -1.496561         2.016246         2.645416
 C        -1.188332         1.829243         1.290776
 O        -2.131778        -0.348194         2.869642
 C        -0.932905        -0.558873         2.020712
 H         0.482233         1.001170        -0.329923
 H        -1.748666         0.550178        -1.021432
 H        -2.545799        -0.732424        -0.197564
 H        -3.556118         1.868184         0.667357
 H        -3.609413         1.148540         2.916985
 H        -1.877799         2.957704         2.868765
 H        -0.781398         1.838992         3.424554
 H        -0.683753         2.662180         0.872959
 H         0.022475        -0.600795         2.688058
 H        -0.930230        -1.540577         1.591402
