19
Iteration:  2530charge 0 multiplicity 1
 O         0.548211         0.220599         0.353942
 C        -0.817075         0.396645         0.805789
 C        -2.188134         0.160503         0.096818
 C        -2.659192         1.309796         0.976414
 C        -2.548159         0.983937         2.491350
 C        -1.416107         2.029750         2.613484
 C        -1.230362         1.895916         1.159748
 O        -2.192850        -0.368272         2.729213
 C        -0.984601        -0.554134         1.991994
 H         0.510636         0.326950        -0.602618
 H        -2.010608         0.472200        -0.951902
 H        -2.619769        -0.873207         0.030784
 H        -3.530399         1.997777         0.798954
 H        -3.368580         1.041699         3.289970
 H        -1.800793         3.016260         2.965567
 H        -0.477656         1.778436         3.290001
 H        -0.913866         2.684995         0.469572
 H        -0.142220        -0.363521         2.695014
 H        -1.104530        -1.502105         1.625939
