19
Iteration:   249
 O         0.457952         0.114748         0.071203
 C        -0.749006         0.465258         0.808993
 C        -2.108265         0.219630         0.099449
 C        -2.530300         1.459812         0.941003
 C        -2.678269         0.939044         2.518389
 C        -1.572643         1.883504         2.869629
 C        -1.073456         1.877234         1.315069
 O        -2.268215        -0.383616         2.607682
 C        -0.866515        -0.444034         2.093685
 H         0.086076        -0.016550        -0.793372
 H        -2.029434         0.257175        -1.043246
 H        -2.607767        -0.663243         0.305728
 H        -3.226554         2.243503         0.376803
 H        -3.536523         1.091388         3.115334
 H        -2.124538         2.884645         2.911178
 H        -1.034784         1.626548         3.807478
 H        -0.557955         2.699696         0.720545
 H        -0.182599        -0.230642         2.906512
 H        -0.774542        -1.510722         1.636860
