19
Iteration:   364
 O         0.356085         0.170409         0.058129
 C        -0.782830         0.354670         0.878896
 C        -2.144517         0.271744         0.013052
 C        -2.485064         1.384208         0.946393
 C        -2.632597         0.974090         2.447814
 C        -1.528079         1.977407         2.787659
 C        -1.133319         1.817367         1.285573
 O        -2.243420        -0.389545         2.631182
 C        -0.868055        -0.541999         2.188020
 H         0.987023         0.882265        -0.022652
 H        -1.957250         0.653926        -0.989194
 H        -2.876094        -0.644754        -0.174232
 H        -3.194940         2.064848         0.669834
 H        -3.606203         1.131558         3.014652
 H        -1.912826         2.978516         3.073889
 H        -0.798579         1.619072         3.643342
 H        -0.640145         2.591851         0.765469
 H        -0.122695        -0.144995         2.997968
 H        -0.691099        -1.598090         1.976670
