19
Iteration:  2992
 O         0.474251         0.065261         0.106969
 C        -0.781103         0.364756         0.834352
 C        -2.070948         0.232358         0.033551
 C        -2.648064         1.333320         1.016592
 C        -2.646942         1.036300         2.510432
 C        -1.533313         1.991166         2.756975
 C        -1.180616         1.834591         1.233735
 O        -2.190430        -0.387035         2.634683
 C        -0.889614        -0.415762         2.144304
 H         0.446557         0.574413        -0.736132
 H        -2.105455         0.646274        -1.039229
 H        -2.602671        -0.779152        -0.040743
 H        -3.596527         1.720853         0.696012
 H        -3.575497         1.163977         3.092403
 H        -1.808899         2.997964         3.002012
 H        -0.782185         1.727212         3.502686
 H        -0.763005         2.726283         0.840620
 H        -0.258758         0.110766         2.810202
 H        -0.384307        -1.384366         2.205208
