19
Iteration:  3124
 O         0.486035         0.258157         0.076739
 C        -0.693704         0.383427         0.887151
 C        -2.131636         0.201285         0.162708
 C        -2.601993         1.286064         0.996799
 C        -2.628038         0.964766         2.519549
 C        -1.551587         2.110284         2.710844
 C        -1.192202         1.820830         1.229899
 O        -2.190768        -0.366896         2.612740
 C        -0.944998        -0.543285         2.070848
 H         0.921982        -0.602083         0.292221
 H        -2.157359         0.518009        -0.921969
 H        -2.755512        -0.691949         0.387585
 H        -3.400102         2.036259         0.647069
 H        -3.629553         1.012407         3.015495
 H        -1.898089         3.160427         2.622631
 H        -0.998195         2.001496         3.670534
 H        -0.707346         2.633643         0.662256
 H        -0.035808        -0.480724         2.665086
 H        -1.029211        -1.637415         1.549993
