19
Iteration:   694charge 0 multiplicity 1
 O         0.401512         0.093127         0.194811
 C        -0.872235         0.404921         0.867613
 C        -2.036230         0.431299        -0.030461
 C        -2.601990         1.384107         0.973070
 C        -2.696939         0.863961         2.530011
 C        -1.485579         2.042075         2.711366
 C        -1.126604         1.822864         1.304840
 O        -2.144030        -0.412169         2.701699
 C        -0.925530        -0.532632         2.074440
 H         0.323652        -0.289111        -0.713247
 H        -1.723655         0.883125        -0.935890
 H        -2.468761        -0.494942        -0.451259
 H        -3.413309         1.969830         0.655291
 H        -3.727691         1.005461         2.998274
 H        -2.057499         3.038431         2.744023
 H        -0.654365         2.115427         3.555971
 H        -0.645089         2.616454         0.692539
 H         0.019472        -0.289862         2.698379
 H        -0.730879        -1.569030         1.811261
