19
Iteration:   332
 O         0.526851         0.096001         0.240978
 C        -0.774403         0.429541         0.816753
 C        -2.156804         0.282049        -0.026377
 C        -2.659418         1.364027         0.968837
 C        -2.627442         0.990179         2.511962
 C        -1.509698         1.960963         2.755684
 C        -1.230851         1.880238         1.253937
 O        -2.138318        -0.314322         2.718900
 C        -0.972069        -0.606445         1.941253
 H         1.260636         0.763230         0.191616
 H        -2.083110         0.688864        -1.030966
 H        -2.670714        -0.787157         0.056662
 H        -3.431071         1.974924         0.640947
 H        -3.530366         1.099230         3.179462
 H        -1.746816         2.984948         3.049543
 H        -0.663850         1.635881         3.432405
 H        -0.728943         2.699338         0.751116
 H        -0.157526        -0.716495         2.750200
 H        -1.195213        -1.572974         1.516953
