19
Iteration:  4717
 O         0.517838         0.243870         0.244170
 C        -0.827575         0.390007         0.769073
 C        -2.132439         0.103422         0.020101
 C        -2.800619         1.151735         0.979130
 C        -2.603657         1.010801         2.506513
 C        -1.435301         2.063661         2.580357
 C        -1.392091         1.868455         1.087003
 O        -2.066335        -0.294723         2.826686
 C        -0.832214        -0.436011         2.108268
 H         0.926592        -0.515536         0.664175
 H        -2.117476         0.520648        -0.978634
 H        -2.692934        -0.901274         0.209367
 H        -3.603416         1.729766         0.711103
 H        -3.383399         1.227899         3.161968
 H        -1.752879         3.045492         2.935602
 H        -0.472494         1.784584         2.993786
 H        -1.055156         2.654127         0.385107
 H        -0.038489        -0.063600         2.718788
 H        -0.646176        -1.601254         2.019921
