19
Iteration:  3651charge 0 multiplicity 1
 O         0.439757         0.170757         0.147001
 C        -0.800542         0.364855         0.840474
 C        -2.225101         0.086232         0.128654
 C        -2.644363         1.318375         0.926951
 C        -2.577594         1.003160         2.481817
 C        -1.576014         2.098671         2.687409
 C        -1.246056         1.827291         1.188875
 O        -2.108600        -0.313831         2.699970
 C        -0.776393        -0.438449         2.063041
 H         1.157493        -0.049534         0.778860
 H        -2.153589         0.145953        -1.030491
 H        -2.617443        -0.880416         0.493138
 H        -3.588894         1.780554         0.622155
 H        -3.568034         1.192935         3.007829
 H        -2.030649         3.072588         2.661905
 H        -0.979998         1.886514         3.541334
 H        -0.811735         2.552056         0.447718
 H         0.217030        -0.109984         2.668686
 H        -0.668785        -1.533698         2.004935
