19
Iteration:   857
 O         0.454845         0.416656         0.189194
 C        -0.786711         0.350350         0.847925
 C        -2.136034         0.241793         0.018984
 C        -2.592726         1.365999         0.977284
 C        -2.596353         0.998120         2.473723
 C        -1.322389         2.006932         2.740420
 C        -1.118210         1.791168         1.229877
 O        -2.344794        -0.486645         2.676270
 C        -0.992998        -0.592573         2.034305
 H         0.672155        -0.504377         0.027357
 H        -2.184873         0.674895        -0.965956
 H        -2.686063        -0.796563         0.090366
 H        -3.418348         2.095248         0.791654
 H        -3.602429         1.160314         2.981515
 H        -1.560688         2.998657         2.958054
 H        -0.622839         1.786830         3.506755
 H        -0.592560         2.592783         0.700967
 H        -0.313900        -0.258335         2.759493
 H        -0.807828        -1.680670         1.989187
