19
Iteration:  1900charge 0 multiplicity 1
 O         0.396049        -0.069637         0.052677
 C        -0.786220         0.362594         0.797139
 C        -2.051757         0.219147         0.057314
 C        -2.655584         1.371574         0.946142
 C        -2.675585         1.028932         2.512627
 C        -1.610273         2.016458         2.843449
 C        -1.187895         1.867872         1.312015
 O        -2.157282        -0.306285         2.641265
 C        -0.727857        -0.446583         2.094538
 H         0.598943         0.610672        -0.663008
 H        -1.890157         0.674187        -0.925679
 H        -2.623622        -0.679167        -0.052837
 H        -3.446981         1.899041         0.529720
 H        -3.541255         1.172954         3.103740
 H        -2.142889         3.016886         2.972848
 H        -1.156592         1.796914         3.815200
 H        -0.740463         2.774497         0.804512
 H         0.041912         0.071335         2.926388
 H        -0.474983        -1.489149         2.182876
