19
Iteration:  2257
 O         0.530421         0.116783         0.361380
 C        -0.901181         0.337402         0.779240
 C        -2.149648         0.289280        -0.001485
 C        -2.667918         1.294254         0.960280
 C        -2.588286         0.989427         2.494253
 C        -1.488947         2.099960         2.639129
 C        -1.253037         1.819959         1.185646
 O        -2.083039        -0.346108         2.801193
 C        -0.897355        -0.568356         2.007823
 H         0.521806         0.566522        -0.488096
 H        -2.090490         0.712775        -0.976259
 H        -2.731146        -0.606471         0.151395
 H        -3.425990         2.035864         0.736699
 H        -3.552054         1.197146         3.011557
 H        -1.838903         3.060302         2.801877
 H        -0.664252         1.838090         3.257659
 H        -0.954711         2.589541         0.466845
 H        -0.075353        -0.373173         2.569786
 H        -0.883111        -1.615848         1.661773
