19
Iteration:  1425charge 0 multiplicity 1
 C        -0.211641         0.054621        -0.250153
 C         1.207430        -0.032117         0.172353
 C         1.884928         0.902274         1.245504
 C         3.195426         0.575699         0.535751
 C         3.163409        -1.147688         0.466830
 C         3.189312        -1.127962        -1.059024
 C         2.543552         0.268118        -0.940130
 O         2.509071         1.312588        -1.882692
 O         1.815722        -1.373180         0.581398
 H        -1.066507         0.061021         0.533516
 H        -0.370546         0.959856        -0.970845
 H        -0.535470        -0.732495        -0.832919
 H         1.734924         1.961547         1.170989
 H         1.631711         0.612844         2.316936
 H         4.080865         1.152240         0.689719
 H         3.878617        -1.789601         1.005782
 H         4.165012        -1.135215        -1.286765
 H         2.757781        -1.983082        -1.466177
 H         3.385941         1.480678        -2.203998
