19
Iteration:  3015
 C        -0.257201         0.127097        -0.229570
 C         1.288210        -0.068692         0.144765
 C         1.977150         0.949252         1.140886
 C         3.326318         0.427121         0.492626
 C         3.216059        -1.144464         0.391248
 C         3.208712        -1.105578        -1.100594
 C         2.489063         0.227847        -0.829706
 O         2.427106         1.239304        -1.781697
 O         1.782458        -1.264306         0.624287
 H        -0.815712         0.102085         0.696892
 H        -0.434692         1.066120        -0.647509
 H        -0.658328        -0.742397        -0.833973
 H         1.922391         1.987241         0.708991
 H         1.795367         0.913448         2.280632
 H         4.258767         0.919416         0.651187
 H         3.795950        -1.862568         0.953151
 H         4.116784        -0.826023        -1.581932
 H         2.707126        -1.941137        -1.585802
 H         1.516161         1.364282        -2.045140
