19
Iteration:  2684charge 0 multiplicity 1
 C        -0.041579         0.022135        -0.256219
 C         1.338991        -0.037016         0.146555
 C         2.052983         0.981222         1.112601
 C         3.282514         0.379522         0.529605
 C         3.142519        -1.097160         0.463520
 C         3.243302        -1.045635        -1.109517
 C         2.521441         0.220626        -0.911525
 O         2.302029         1.322281        -1.783708
 O         1.653427        -1.354113         0.610169
 H        -0.825816        -0.130443         0.567095
 H        -0.400560         0.920102        -0.822661
 H        -0.213058        -0.965528        -0.790834
 H         1.858188         1.993368         0.657470
 H         1.824923         0.856381         2.160730
 H         4.306026         0.789212         0.647371
 H         3.566675        -1.714958         1.203655
 H         4.263407        -0.928966        -1.398308
 H         2.739441        -1.848447        -1.510429
 H         1.640316         1.985742        -1.448862
