19
Iteration:  1164charge 0 multiplicity 1
 C        -0.125127         0.079777        -0.334945
 C         1.283160         0.010496         0.152047
 C         1.854429         1.034663         1.086610
 C         3.297887         0.449147         0.600263
 C         3.144817        -1.190559         0.434505
 C         3.257201        -1.072968        -1.139069
 C         2.556007         0.251498        -0.767595
 O         2.313669         1.220899        -1.722196
 O         1.757464        -1.335681         0.611429
 H        -0.848416        -0.386940         0.265380
 H        -0.257242         1.263269        -0.535647
 H        -0.143969        -0.343748        -1.348849
 H         1.673601         1.986027         0.630960
 H         1.603792         0.947109         2.146721
 H         4.252973         0.948639         0.762631
 H         3.664582        -1.872416         1.155932
 H         4.395199        -0.960719        -1.402728
 H         2.872921        -2.005998        -1.609235
 H         2.948645         1.049257        -2.473148
