19
Iteration:  2175charge 0 multiplicity 1
 C        -0.141704         0.123999        -0.419690
 C         1.285530         0.009763         0.164982
 C         1.956020         0.863858         1.251073
 C         3.255391         0.428647         0.538374
 C         3.157511        -1.057167         0.458154
 C         3.209690        -1.126150        -1.112734
 C         2.512307         0.220437        -0.896777
 O         2.284724         1.275172        -1.762225
 O         1.801644        -1.311535         0.680468
 H        -0.902526         0.119364         0.254086
 H         0.032659         1.072231        -1.029260
 H        -0.315859        -0.879008        -1.085361
 H         1.738462         1.921582         1.056263
 H         1.938701         0.669834         2.333402
 H         4.234865         0.902854         0.639720
 H         3.856653        -1.762420         0.993041
 H         4.140232        -1.011445        -1.553851
 H         2.576351        -1.861400        -1.532162
 H         3.021471         1.383804        -2.367174
