19
Iteration:  4251
 C        -0.103414        -0.006481        -0.116261
 C         1.355275         0.039121         0.151171
 C         2.015511         0.956076         1.189957
 C         3.281122         0.499909         0.508793
 C         3.108807        -1.149120         0.418677
 C         3.185333        -1.074046        -1.150546
 C         2.547259         0.299793        -0.931784
 O         2.356713         1.203424        -1.980755
 O         1.730822        -1.343337         0.768772
 H        -0.829464        -0.214078         0.751916
 H        -0.412362         0.952735        -0.583110
 H        -0.447398        -0.506121        -1.054204
 H         1.658703         1.972910         0.978193
 H         1.773226         0.732621         2.196138
 H         4.349305         0.804473         0.490145
 H         3.746054        -1.981135         0.965448
 H         4.133129        -0.801483        -1.575027
 H         2.714945        -1.896601        -1.779686
 H         1.767567         1.921948        -1.646212
