19
Iteration:  3304charge 0 multiplicity 1
 C        -0.019317         0.129415        -0.381664
 C         1.363355         0.042892         0.221175
 C         2.044051         0.959804         1.160861
 C         3.368886         0.368949         0.601623
 C         3.124009        -1.214873         0.357417
 C         3.111630        -1.060884        -1.134820
 C         2.576937         0.301362        -0.780283
 O         2.109662         1.171541        -1.943672
 O         1.785155        -1.335958         0.776533
 H        -0.857013         0.007082         0.457483
 H        -0.236738         1.168831        -0.807676
 H        -0.139471        -0.509318        -1.204926
 H         1.964330         2.059451         0.916941
 H         1.827800         0.921692         2.283273
 H         4.412795         0.792418         0.597859
 H         3.672189        -1.843017         0.993131
 H         4.089856        -1.095515        -1.583801
 H         2.448061        -1.708607        -1.769763
 H         2.190161         2.041010        -1.544542
