19
Iteration:  3278
 C        -0.058574         0.100873        -0.279633
 C         1.297579        -0.006155         0.253899
 C         2.104964         0.973910         1.233276
 C         3.288199         0.474208         0.457288
 C         3.178694        -1.083723         0.378889
 C         3.094242        -1.081640        -1.100802
 C         2.452051         0.214034        -0.817150
 O         2.371111         1.148745        -1.902069
 O         1.694959        -1.318964         0.640624
 H        -0.865523        -0.200902         0.412751
 H        -0.335024         1.168426        -0.512084
 H        -0.099849        -0.497490        -1.233028
 H         1.964951         2.003637         1.268563
 H         2.185054         0.565149         2.183785
 H         4.248602         0.983576         0.396635
 H         3.717074        -1.832921         1.071946
 H         4.020002        -0.955364        -1.699843
 H         2.541919        -1.881067        -1.529415
 H         1.807330         1.800430        -1.495045
