19
Iteration:   450charge 0 multiplicity 1
 C        -0.117533         0.098775        -0.183766
 C         1.316529         0.021640         0.189709
 C         2.141253         0.953618         1.221578
 C         3.368778         0.362657         0.458566
 C         2.929105        -1.132426         0.462537
 C         3.201783        -1.052078        -1.090125
 C         2.534383         0.254270        -0.846423
 O         2.461827         1.279982        -1.901501
 O         1.545393        -1.283642         0.611179
 H        -0.658125        -0.142556         0.755747
 H        -0.479511         0.982661        -0.562389
 H        -0.114568        -0.697109        -0.900345
 H         1.895167         2.038065         1.053317
 H         2.141157         0.568310         2.273246
 H         4.375177         0.599895         0.426835
 H         3.492017        -1.660845         1.201429
 H         4.352961        -1.086579        -1.456446
 H         2.617548        -1.767023        -1.854958
 H         2.292598         0.688277        -2.642260
