19
Iteration:   341
 C        -0.086069         0.100115        -0.267062
 C         1.332137         0.087367         0.195777
 C         2.063871         0.989013         1.244412
 C         3.375293         0.371633         0.489827
 C         2.971165        -1.217661         0.391308
 C         3.135328        -1.086431        -1.157414
 C         2.559385         0.269558        -0.837672
 O         2.477003         1.248316        -1.845478
 O         1.621857        -1.266382         0.689576
 H        -0.826851         0.033606         0.610367
 H        -0.377048         0.930125        -0.913989
 H        -0.289433        -0.858809        -0.797531
 H         1.996909         2.025151         0.925669
 H         1.778734         0.729279         2.289734
 H         4.353276         0.615708         0.663297
 H         3.569964        -1.979815         0.926274
 H         4.174202        -0.921350        -1.496677
 H         2.616227        -1.806250        -1.802328
 H         1.740101         0.899056        -2.422363
