19
Iteration:  2795
 C        -0.098613         0.090564        -0.308768
 C         1.358564         0.002818         0.191100
 C         2.018994         0.957043         1.093052
 C         3.296756         0.452385         0.492474
 C         3.138650        -1.194813         0.393574
 C         3.242693        -1.112922        -1.086794
 C         2.517003         0.234832        -0.898214
 O         2.230795         1.317742        -1.835386
 O         1.716851        -1.391396         0.742747
 H        -0.959853        -0.212043         0.518748
 H        -0.214415         1.114821        -0.483550
 H        -0.172569        -0.596870        -1.273059
 H         1.815209         2.037707         0.807454
 H         1.848376         0.817345         2.156252
 H         4.299744         0.966935         0.679516
 H         3.805111        -1.817112         1.078128
 H         4.217016        -0.945060        -1.429907
 H         2.765463        -1.946153        -1.586035
 H         2.267345         2.126731        -1.311567
