19
Iteration:  3626
 C        -0.066509         0.144104        -0.378988
 C         1.317769         0.026517         0.243444
 C         2.048110         0.977216         1.197366
 C         3.295376         0.402144         0.500928
 C         3.311238        -1.113498         0.388837
 C         3.152086        -1.116573        -1.085478
 C         2.376419         0.210515        -0.860202
 O         2.243383         1.214256        -1.850316
 O         1.764290        -1.319165         0.742124
 H        -0.834436        -0.035828         0.338778
 H        -0.163910         1.252020        -0.697538
 H         0.018532        -0.686641        -1.250645
 H         1.945055         2.090864         0.897510
 H         1.828796         0.699057         2.299432
 H         4.236267         0.896952         0.426007
 H         3.901338        -1.911356         0.859485
 H         4.098585        -0.857248        -1.629666
 H         2.845013        -2.118236        -1.446880
 H         1.314746         1.515043        -1.936580
