19
Iteration:  2072
 C        -0.266742         0.003600        -0.159760
 C         1.232277        -0.093189         0.183958
 C         1.931544         0.953761         1.222923
 C         3.171591         0.500801         0.537517
 C         3.149208        -1.113098         0.376949
 C         3.242316        -1.067292        -1.128923
 C         2.549067         0.349543        -0.889986
 O         2.657738         1.349387        -1.927162
 O         1.713004        -1.387574         0.676642
 H        -0.809780        -0.377104         0.850680
 H        -0.611853         0.972290        -0.441350
 H        -0.414646        -0.673381        -0.949271
 H         1.630672         2.000795         0.886960
 H         1.758915         0.687863         2.309356
 H         4.090127         1.132456         0.624455
 H         3.637402        -1.833385         1.012483
 H         4.275022        -1.173620        -1.463087
 H         2.642858        -1.881053        -1.570007
 H         2.295205         0.886577        -2.770860
