19
Iteration:  2372charge 0 multiplicity 1
 C        -0.192636         0.000727        -0.159308
 C         1.264857        -0.059162         0.114811
 C         1.929570         1.001377         1.083918
 C         3.214996         0.454243         0.495622
 C         3.107521        -1.102475         0.386607
 C         3.348124        -1.098001        -1.067432
 C         2.475299         0.230674        -0.902815
 O         2.504126         1.384714        -1.751406
 O         1.722622        -1.414621         0.660360
 H        -0.677827        -0.019439         0.670919
 H        -0.390725         0.948734        -0.686305
 H        -0.489219        -0.832165        -0.891914
 H         1.826503         2.092553         0.726483
 H         1.708526         0.990449         2.173533
 H         4.204676         0.933586         0.770001
 H         3.671979        -1.765318         1.000878
 H         4.338331        -0.905768        -1.304597
 H         2.922157        -1.915044        -1.596988
 H         2.015154         1.354359        -2.624806
