19
Iteration:  3360
 C        -0.202232         0.023287        -0.066935
 C         1.299995        -0.013890         0.153384
 C         1.962190         0.950991         1.130016
 C         3.277745         0.463841         0.495384
 C         3.221371        -1.135198         0.413992
 C         3.154919        -1.130876        -1.121215
 C         2.494940         0.244577        -0.921950
 O         2.434125         1.347083        -1.838835
 O         1.717633        -1.334200         0.611669
 H        -0.735915         0.063766         0.951016
 H        -0.390932         0.925717        -0.660135
 H        -0.750238        -0.809837        -0.598866
 H         1.697530         1.963975         0.643153
 H         1.849441         0.934196         2.261806
 H         4.262717         0.955321         0.546516
 H         3.708358        -1.736990         1.123777
 H         4.117371        -0.936210        -1.599887
 H         2.573607        -1.996322        -1.538077
 H         3.258754         1.132872        -2.295677
