19
Iteration:  2319charge 0 multiplicity 1
 C        -0.016428        -0.001851        -0.433612
 C         1.334875         0.073184         0.220670
 C         1.984906         0.947460         1.302798
 C         3.280173         0.414005         0.494412
 C         3.103681        -1.174131         0.452636
 C         3.219712        -1.135529        -1.060349
 C         2.573623         0.285727        -0.833559
 O         2.256303         1.346252        -1.842939
 O         1.724217        -1.306673         0.642309
 H        -0.811604        -0.188109         0.211136
 H        -0.286386         0.960334        -1.082905
 H         0.152109        -0.876951        -1.162492
 H         1.682496         2.033135         1.174158
 H         2.045236         0.696390         2.360401
 H         4.300773         0.888735         0.640537
 H         3.587935        -1.917862         1.047446
 H         4.235136        -0.954613        -1.312037
 H         2.690180        -1.701695        -1.770261
 H         1.476344         1.060284        -2.412359
