19
Iteration:  2742charge 0 multiplicity 1
 C        -0.209057        -0.054758        -0.069934
 C         1.295569        -0.069091         0.243348
 C         1.966997         0.935282         1.221769
 C         3.218059         0.442898         0.469859
 C         3.128244        -1.144934         0.413587
 C         3.179198        -1.022991        -1.061320
 C         2.493193         0.310901        -0.918406
 O         2.528892         1.374289        -1.966626
 O         1.709287        -1.335833         0.560913
 H        -0.758330        -0.219304         1.012672
 H        -0.539208         0.866078        -0.397876
 H        -0.591213        -0.696629        -0.934177
 H         1.706495         1.965839         0.966140
 H         1.885361         0.885194         2.306376
 H         4.245067         0.866230         0.519423
 H         3.618359        -1.776813         1.205975
 H         4.251951        -0.859287        -1.301407
 H         2.826305        -1.906371        -1.716302
 H         3.203324         1.030242        -2.569639
