19
Iteration:   546
 C        -0.139794         0.157857        -0.223024
 C         1.294906         0.086019         0.126943
 C         2.121671         0.991664         1.131695
 C         3.344176         0.308695         0.630786
 C         3.093566        -1.249259         0.392179
 C         3.208320        -1.100376        -1.109835
 C         2.514966         0.293521        -0.868860
 O         2.368910         1.244531        -1.856813
 O         1.658022        -1.231564         0.656428
 H        -0.734897         0.061956         0.719048
 H        -0.491774         1.093211        -0.694807
 H        -0.311357        -0.701731        -0.824664
 H         2.282475         2.042596         0.899885
 H         1.741074         0.711710         2.139730
 H         4.340332         0.551955         0.790885
 H         3.590214        -2.138333         0.857136
 H         4.206362        -1.166971        -1.537494
 H         2.630624        -1.854915        -1.590277
 H         1.591639         0.878169        -2.317659
