19
Iteration:   332charge 0 multiplicity 1
 C        -0.100558         0.151240        -0.235512
 C         1.283700         0.059709         0.232418
 C         2.015077         0.991020         1.166163
 C         3.267912         0.357063         0.499894
 C         3.094226        -1.299753         0.392873
 C         3.096821        -1.148093        -1.060262
 C         2.601257         0.298131        -0.874909
 O         2.468483         1.326082        -1.858291
 O         1.684289        -1.298538         0.664212
 H        -0.906412         0.197994         0.607447
 H        -0.226524         1.071914        -0.849301
 H        -0.210151        -0.766626        -0.956153
 H         1.919995         2.081431         0.876664
 H         1.959025         0.804660         2.256466
 H         4.374833         0.614216         0.566091
 H         3.673461        -1.931172         1.045519
 H         4.040370        -1.131864        -1.452605
 H         2.515284        -1.770651        -1.659894
 H         1.844765         1.015397        -2.578502
