19
Iteration:  3223
 C        -0.179124         0.056569         0.111644
 C         1.303956        -0.029556         0.167819
 C         1.958380         1.085361         1.051602
 C         3.276057         0.444512         0.469340
 C         3.060350        -1.165407         0.388832
 C         3.206168        -1.039373        -1.134596
 C         2.582880         0.225924        -0.832757
 O         2.579225         1.221320        -1.911329
 O         1.673346        -1.352146         0.501181
 H        -0.551687        -0.322882         1.110150
 H        -0.756494         0.976588        -0.046631
 H        -0.488386        -0.915488        -0.491611
 H         1.810257         1.950415         0.505993
 H         1.771958         1.233468         2.036795
 H         4.259731         0.719885         0.755419
 H         3.409921        -2.038094         1.076157
 H         4.246815        -0.839181        -1.486964
 H         2.586530        -1.727934        -1.636466
 H         1.704886         1.651962        -1.743494
