19
Iteration:  3538charge 0 multiplicity 1
 C        -0.191397         0.039142         0.009436
 C         1.289532        -0.067404         0.207285
 C         1.938687         1.010613         1.052385
 C         3.241992         0.551412         0.497322
 C         3.124674        -1.119083         0.438912
 C         3.172147        -1.072933        -1.266280
 C         2.546206         0.242438        -0.876815
 O         2.552204         1.255464        -1.808961
 O         1.738779        -1.382727         0.655068
 H        -0.751047        -0.092346         0.925942
 H        -0.534369         1.050977        -0.413692
 H        -0.663120        -0.928400        -0.628805
 H         1.487918         2.014071         0.664013
 H         1.753795         1.095080         2.182945
 H         4.176029         1.052765         0.506061
 H         3.835649        -1.808654         0.915297
 H         4.180454        -0.849103        -1.723275
 H         2.614636        -1.831374        -1.829802
 H         2.318517         0.855853        -2.684680
