19
Iteration:   865
 C        -0.149274         0.137159        -0.314403
 C         1.242637        -0.095965         0.118107
 C         1.898254         0.995665         1.080151
 C         3.238595         0.445590         0.575314
 C         3.136313        -1.159156         0.465807
 C         3.219583        -1.124531        -1.149081
 C         2.649885         0.274256        -0.798872
 O         2.361092         1.335129        -1.749439
 O         1.793214        -1.390146         0.699608
 H        -0.905546         0.359966         0.552086
 H         0.005567         1.021516        -0.919761
 H        -0.627031        -0.487067        -1.146008
 H         1.804994         2.030078         0.766681
 H         1.686457         0.992472         2.076856
 H         4.379014         0.749107         0.826200
 H         3.762255        -1.938171         0.953631
 H         4.181109        -1.103249        -1.627720
 H         2.534487        -1.809429        -1.544416
 H         2.406415         0.921528        -2.659850
