19
Iteration:  1875
 C        -0.155449         0.012184        -0.294959
 C         1.294948        -0.013955         0.157861
 C         1.895021         0.899886         1.290143
 C         3.214692         0.474355         0.518297
 C         3.103975        -1.017669         0.458894
 C         3.191396        -1.089874        -1.154722
 C         2.523672         0.283595        -0.876456
 O         2.481760         1.250310        -1.879637
 O         1.751991        -1.309307         0.623240
 H        -0.777579        -0.350724         0.656451
 H        -0.501950         1.079054        -0.598208
 H        -0.234767        -0.766049        -1.173968
 H         1.505298         1.932662         1.412972
 H         1.849601         0.510909         2.295511
 H         4.212983         0.933545         0.828230
 H         3.775326        -1.685819         0.962449
 H         4.154699        -1.096109        -1.603325
 H         2.585431        -1.887101        -1.507453
 H         3.396407         1.229827        -2.170256
