19
Iteration:  1923
 C        -0.211598        -0.015760        -0.138499
 C         1.268590        -0.016555         0.091615
 C         1.951554         1.063166         1.052387
 C         3.203919         0.367185         0.587836
 C         3.093042        -1.187276         0.374653
 C         3.402986        -1.039540        -1.101254
 C         2.638017         0.251074        -0.909112
 O         2.370176         1.278171        -1.702836
 O         1.635198        -1.305522         0.606281
 H        -0.676294        -0.305773         0.703400
 H        -0.516010         0.930521        -0.428568
 H        -0.378911        -0.793584        -1.053263
 H         2.099619         2.068207         0.720885
 H         1.517771         1.199617         2.063758
 H         4.134483         0.854407         0.851180
 H         3.717611        -1.723345         1.132880
 H         4.564575        -0.744778        -1.221515
 H         3.134715        -1.861312        -1.874483
 H         2.677269         1.278058        -2.643782
