19
Iteration:  1769charge 0 multiplicity 1
 C        -0.144728        -0.048221        -0.268955
 C         1.254101         0.039624         0.181743
 C         1.944475         0.928082         1.285247
 C         3.208144         0.486592         0.612982
 C         3.058782        -1.138523         0.350573
 C         3.268251        -1.009783        -1.084590
 C         2.597667         0.338806        -0.844685
 O         2.455020         1.213788        -1.930149
 O         1.686390        -1.309574         0.637787
 H        -0.848658        -0.115614         0.460649
 H        -0.398470         0.736072        -0.845327
 H        -0.306454        -0.975542        -0.954216
 H         1.573649         1.896726         0.977479
 H         1.648213         0.634293         2.312946
 H         4.239774         0.847658         0.828980
 H         3.743109        -1.863154         0.739728
 H         4.341549        -0.894633        -1.489147
 H         2.662006        -1.705809        -1.742375
 H         3.365198         1.351556        -2.203305
