19
Iteration:  4534charge 0 multiplicity 1
 C        -0.263008         0.061808         0.087806
 C         1.254137        -0.075457         0.076979
 C         2.006015         0.955415         1.100513
 C         3.237590         0.484870         0.394403
 C         3.089747        -1.063622         0.473459
 C         3.263995        -1.129177        -1.122436
 C         2.478380         0.177643        -0.966320
 O         2.522730         1.331052        -1.789018
 O         1.738684        -1.328907         0.607708
 H        -0.677303        -0.031084         1.087884
 H        -0.375888         0.950755        -0.463226
 H        -0.634402        -0.726399        -0.733252
 H         1.823649         2.067831         0.886665
 H         1.959774         0.622906         2.142921
 H         4.261548         0.882458         0.321564
 H         3.693194        -1.712583         1.096464
 H         4.201575        -0.716118        -1.488830
 H         3.262251        -2.093528        -1.655231
 H         2.028599         1.318445        -2.633150
