19
Iteration:  4305
 C        -0.015916         0.020439        -0.299085
 C         1.318966         0.012805         0.180172
 C         2.111136         0.995206         1.159806
 C         3.328861         0.454013         0.395152
 C         3.156017        -1.119519         0.448868
 C         3.234759        -1.215098        -1.098613
 C         2.491652         0.261963        -0.945260
 O         2.205270         1.349547        -1.707827
 O         1.688239        -1.277852         0.718060
 H        -0.755417        -0.236075         0.513807
 H        -0.502661         0.887481        -0.597346
 H        -0.308245        -0.766250        -1.027897
 H         1.975551         2.064291         0.913121
 H         2.073466         0.705837         2.195303
 H         4.352645         0.914467         0.253096
 H         3.522252        -2.066786         1.073084
 H         4.276768        -1.174766        -1.359246
 H         2.463548        -1.927911        -1.549467
 H         1.628448         1.078324        -2.469786
