19
Iteration:  4129charge 0 multiplicity 1
 C        -0.021989         0.025540        -0.369324
 C         1.313583         0.009031         0.194210
 C         2.148381         0.991509         1.191770
 C         3.335662         0.408562         0.462937
 C         3.101223        -1.199702         0.439041
 C         3.128331        -1.077840        -1.116721
 C         2.531048         0.311088        -0.863120
 O         2.086586         1.242485        -1.804380
 O         1.754765        -1.286651         0.782131
 H        -0.836305        -0.296441         0.293842
 H        -0.285590         0.940613        -0.880999
 H         0.004193        -0.793638        -1.244338
 H         1.955125         2.002460         0.909145
 H         2.162559         1.017522         2.287546
 H         4.261442         0.817771         0.785190
 H         3.776350        -1.823834         1.008457
 H         4.147489        -0.939084        -1.514428
 H         2.672071        -1.771768        -1.851293
 H         2.760265         1.468465        -2.497675
