19
Iteration:  3464charge 0 multiplicity 1
 C        -0.026524         0.100811        -0.358799
 C         1.346109        -0.055432         0.184751
 C         2.068123         0.998465         1.113422
 C         3.303929         0.400654         0.549748
 C         3.161687        -1.153530         0.466827
 C         3.163776        -1.121972        -1.173096
 C         2.520204         0.295281        -0.851616
 O         2.210711         1.300968        -1.858417
 O         1.749737        -1.371731         0.777445
 H        -0.724257        -0.116722         0.371641
 H        -0.263579         1.197807        -0.564590
 H        -0.213514        -0.559967        -1.144655
 H         1.996418         1.972594         0.607883
 H         1.818828         1.067370         2.187408
 H         4.328763         0.690448         0.903526
 H         3.725889        -1.756581         1.254172
 H         4.153891        -0.885598        -1.596053
 H         2.631554        -1.864885        -1.779895
 H         1.260460         1.346372        -1.921848
