19
Iteration:  2311
 C         0.018940        -0.028489        -0.409785
 C         1.310771         0.024281         0.212304
 C         1.985366         0.987646         1.347787
 C         3.360076         0.456397         0.506083
 C         3.110774        -1.214125         0.432110
 C         3.280160        -1.048870        -1.104412
 C         2.513044         0.257691        -0.856508
 O         2.289655         1.320456        -1.846285
 O         1.614466        -1.256212         0.633000
 H        -0.893324        -0.522212         0.282427
 H        -0.296155         0.925981        -0.960975
 H         0.043566        -0.858786        -1.038106
 H         1.871717         2.012565         1.112987
 H         1.873030         0.625331         2.372369
 H         4.415089         0.761359         0.598366
 H         3.544317        -1.895814         1.200566
 H         4.404054        -0.924855        -1.428217
 H         2.685394        -1.796580        -1.747883
 H         1.462454         0.975300        -2.313315
