19
Iteration:  3393charge 0 multiplicity 1
 C        -0.263458        -0.073856        -0.025624
 C         1.263362         0.047260         0.137416
 C         1.985126         0.958006         1.161897
 C         3.317046         0.450279         0.503929
 C         3.084695        -1.217404         0.364564
 C         3.239407        -1.064634        -1.167879
 C         2.592494         0.304560        -0.870212
 O         2.520268         1.330231        -1.953966
 O         1.653391        -1.292378         0.716447
 H        -0.691938        -0.146333         1.048966
 H        -0.659929         0.890961        -0.281128
 H        -0.620057        -0.956952        -0.692359
 H         1.648857         1.996387         0.829893
 H         1.912142         0.832116         2.277137
 H         4.222498         0.977543         0.776550
 H         3.764533        -1.789869         0.924111
 H         4.254789        -0.796216        -1.464899
 H         2.782877        -1.793971        -1.886379
 H         2.513146         0.868813        -2.789109
