19
Iteration:   204charge 0 multiplicity 1
 C        -0.172663         0.200454        -0.298170
 C         1.247614        -0.093015         0.193538
 C         2.112561         0.972723         1.117367
 C         3.336183         0.461241         0.416095
 C         3.105740        -1.256386         0.472599
 C         3.143361        -1.129808        -1.081282
 C         2.526598         0.254160        -0.829744
 O         2.434047         1.258066        -1.883590
 O         1.637604        -1.349576         0.732734
 H        -0.769652         0.077806         0.526832
 H        -0.097765         1.235696        -0.556713
 H        -0.480099        -0.432491        -1.140536
 H         1.613625         1.908049         0.686702
 H         2.024142         1.131667         2.198358
 H         4.419728         0.925114         0.456688
 H         3.608447        -1.902022         1.125678
 H         4.292990        -0.945301        -1.430349
 H         2.619719        -2.060185        -1.610956
 H         2.553122         2.136121        -1.533833
