19
Iteration:   536charge 0 multiplicity 1
 C        -0.151551         0.151956        -0.204749
 C         1.346849         0.150797         0.146525
 C         2.110654         0.978740         1.114812
 C         3.309493         0.253826         0.559867
 C         3.062022        -1.177144         0.383049
 C         3.238851        -1.213389        -1.114333
 C         2.551040         0.208195        -0.897633
 O         2.323362         1.298729        -1.774943
 O         1.670951        -1.248729         0.641436
 H        -0.821342         0.088645         0.666435
 H        -0.406942         1.033183        -0.739183
 H        -0.399892        -0.624815        -0.837397
 H         2.151238         2.063039         0.887354
 H         1.964784         1.023879         2.214077
 H         4.193238         0.653536         0.855392
 H         3.508216        -1.864798         1.115891
 H         4.285366        -0.865822        -1.431647
 H         2.703936        -2.012787        -1.669040
 H         1.831774         1.006089        -2.581286
