19
Iteration:  4515
 C        -0.226235         0.042961        -0.038291
 C         1.322737         0.002724         0.128564
 C         1.932755         0.959265         1.083020
 C         3.287273         0.450895         0.463188
 C         3.200036        -1.176254         0.370296
 C         3.276120        -1.102387        -1.140687
 C         2.514326         0.235279        -0.903775
 O         2.440308         1.317288        -1.825410
 O         1.707069        -1.291276         0.682645
 H        -0.545827        -0.026071         1.045878
 H        -0.594936         1.052497        -0.380303
 H        -0.656505        -0.738441        -0.701655
 H         1.803901         1.999957         0.799368
 H         1.604004         0.801633         2.110303
 H         4.321463         0.839940         0.657336
 H         3.766938        -1.823703         0.936227
 H         4.387419        -1.061639        -1.394699
 H         2.531785        -1.746117        -1.670984
 H         1.873181         0.873815        -2.473344
