19
Iteration:  3192
 C        -0.297926         0.102148        -0.029353
 C         1.237748         0.011877         0.178924
 C         1.997115         0.849451         1.152882
 C         3.281665         0.391697         0.406360
 C         3.151600        -1.118000         0.385854
 C         3.240928        -1.116406        -1.129851
 C         2.521705         0.242425        -0.948837
 O         2.549537         1.284620        -1.954078
 O         1.731381        -1.251935         0.711442
 H        -0.748419        -0.100675         1.027869
 H        -0.691893         0.992065        -0.585681
 H        -0.579312        -0.723089        -0.622390
 H         1.984978         1.936848         1.063799
 H         1.755215         0.590639         2.231308
 H         4.290355         0.765794         0.453681
 H         3.637848        -1.809163         1.149576
 H         4.293964        -0.882322        -1.426360
 H         2.745583        -1.921716        -1.621243
 H         1.758891         1.804960        -1.796597
