19
Iteration:  4182
 C        -0.177374         0.025387        -0.063437
 C         1.248273        -0.114846         0.161688
 C         1.911992         0.955702         1.090161
 C         3.373332         0.445811         0.449068
 C         3.136905        -1.131145         0.451702
 C         3.214086        -1.064455        -1.188007
 C         2.555802         0.310247        -0.943968
 O         2.365676         1.347322        -1.911509
 O         1.732105        -1.370629         0.805415
 H        -0.657813        -0.000010         0.849147
 H        -0.441232         0.871841        -0.624669
 H        -0.575781        -0.779853        -0.737958
 H         1.782360         2.009109         0.849135
 H         1.657094         0.798967         2.193969
 H         4.270629         1.029048         0.483284
 H         3.731996        -1.843247         0.971250
 H         4.272620        -1.043503        -1.609968
 H         2.581555        -1.863852        -1.541753
 H         3.181538         1.606826        -2.425524
