19
Iteration:  1895charge 0 multiplicity 1
 C        -0.189930         0.004753        -0.174236
 C         1.267031        -0.070037         0.081945
 C         1.888109         0.876912         1.121456
 C         3.252967         0.517048         0.505912
 C         3.179166        -1.196163         0.453419
 C         3.237754        -1.054817        -1.046945
 C         2.546239         0.315078        -0.864319
 O         2.497259         1.344143        -1.835073
 O         1.684592        -1.341268         0.626985
 H        -0.866962        -0.372468         0.766383
 H        -0.456139         1.162281        -0.373749
 H        -0.447302        -0.624282        -1.018048
 H         1.727705         1.983975         0.873630
 H         1.490471         0.796015         2.139710
 H         4.170901         1.160176         0.530547
 H         3.678080        -1.793355         1.252005
 H         4.159545        -0.840227        -1.462113
 H         2.788050        -1.844160        -1.591022
 H         3.197446         1.146054        -2.521678
