19
Iteration:  4445charge 0 multiplicity 1
 C        -0.091656         0.085594        -0.310827
 C         1.333673        -0.041448         0.137217
 C         2.027485         0.945548         1.133440
 C         3.338934         0.419478         0.439085
 C         3.217395        -1.154620         0.414025
 C         3.177117        -1.171324        -1.101328
 C         2.508351         0.286079        -0.901657
 O         2.255456         1.321696        -1.744780
 O         1.733489        -1.273044         0.812840
 H        -0.855308        -0.294420         0.366885
 H        -0.317590         1.090778        -0.732150
 H        -0.111275        -0.607582        -1.333073
 H         1.923962         2.020947         0.752503
 H         1.730337         0.836001         2.229386
 H         4.362154         0.849920         0.343856
 H         3.903436        -1.854400         1.062362
 H         4.154089        -1.139838        -1.617701
 H         2.377546        -1.877151        -1.450594
 H         1.404624         1.302773        -2.224320
