19
Iteration:  3932
 C        -0.074451         0.111444        -0.214740
 C         1.357096         0.057762         0.188795
 C         1.999177         0.978566         1.185859
 C         3.332928         0.404184         0.433234
 C         3.137252        -1.127792         0.392182
 C         3.238326        -1.118348        -1.076765
 C         2.506359         0.261586        -0.886883
 O         2.152303         1.184513        -1.847662
 O         1.738655        -1.305307         0.687544
 H        -0.738193         0.028323         0.619232
 H        -0.332187         1.192689        -0.428589
 H        -0.462109        -0.676055        -1.000446
 H         1.819892         2.003266         0.969656
 H         1.934475         0.597101         2.219102
 H         4.423549         0.617400         0.547381
 H         3.800350        -1.728747         0.999398
 H         4.280008        -0.908715        -1.429432
 H         2.713203        -1.949979        -1.584931
 H         2.862502         1.480866        -2.415220
