19
Iteration:  4463charge 0 multiplicity 1
 C        -0.103010         0.000074        -0.429436
 C         1.344090         0.055571         0.219212
 C         2.100528         0.981304         1.235702
 C         3.311787         0.433812         0.429989
 C         3.117180        -1.098394         0.432280
 C         3.103904        -1.179662        -1.165029
 C         2.466259         0.188402        -0.921126
 O         2.282455         1.315623        -1.755482
 O         1.796873        -1.244932         0.797022
 H        -0.739263        -0.284119         0.419397
 H        -0.302386         1.056742        -0.800604
 H        -0.200753        -0.552876        -1.305898
 H         1.902935         2.006617         1.337572
 H         2.205764         0.447787         2.190588
 H         4.260820         0.972287         0.454249
 H         3.629082        -1.750087         1.128769
 H         4.109927        -0.973737        -1.588000
 H         2.824258        -2.063425        -1.703817
 H         1.479345         0.977356        -2.214464
