19
Iteration:  4202charge 0 multiplicity 1
 C        -0.198467         0.036020         0.027265
 C         1.274268        -0.060614         0.214960
 C         1.954583         0.952485         1.098734
 C         3.194071         0.503782         0.485784
 C         3.131034        -1.146776         0.395987
 C         3.235103        -1.047020        -1.149395
 C         2.506813         0.255894        -0.932595
 O         2.431710         1.197433        -1.955392
 O         1.776248        -1.309350         0.631179
 H        -0.598007        -0.005692         1.000952
 H        -0.606479         0.965252        -0.481296
 H        -0.680610        -0.703838        -0.576168
 H         1.674856         2.013971         0.894679
 H         1.765009         0.838991         2.235196
 H         4.213368         0.898778         0.626896
 H         3.825502        -1.665281         0.971938
 H         4.339066        -0.873606        -1.461286
 H         2.887389        -1.798302        -1.847292
 H         3.207418         1.722374        -1.681390
