19
Iteration:  1571charge 0 multiplicity 1
 C        -0.196275        -0.023140        -0.204837
 C         1.271161         0.023824         0.066113
 C         1.948078         0.996693         1.133965
 C         3.213204         0.455734         0.588687
 C         3.084265        -1.180376         0.447881
 C         3.379128        -1.098549        -1.124632
 C         2.589123         0.255522        -0.846172
 O         2.370650         1.262657        -1.819917
 O         1.711707        -1.274021         0.591126
 H        -0.790100        -0.206403         0.641765
 H        -0.706870         0.848452        -0.702482
 H        -0.530233        -0.857542        -1.002792
 H         1.846822         2.129267         1.010308
 H         1.577046         0.656389         2.097124
 H         4.246369         0.860940         0.832341
 H         3.543693        -1.882207         1.185109
 H         4.344759        -0.890979        -1.337286
 H         3.017298        -1.910419        -1.736697
 H         3.193146         1.812418        -1.869721
