19
Iteration:  3516charge 0 multiplicity 1
 C        -0.156203        -0.009709        -0.121993
 C         1.309320        -0.002818         0.157017
 C         2.017347         0.907163         1.165503
 C         3.261261         0.414621         0.518027
 C         3.175734        -1.147390         0.399713
 C         3.186096        -1.056256        -1.076407
 C         2.530129         0.295907        -0.944293
 O         2.420183         1.341323        -1.949615
 O         1.717960        -1.296201         0.755256
 H        -0.782738        -0.040655         0.752273
 H        -0.336581         1.005529        -0.601797
 H        -0.636098        -0.878413        -0.861034
 H         1.783604         2.022381         0.927352
 H         1.606994         0.763988         2.213765
 H         4.262952         0.736686         0.571990
 H         3.885724        -1.869613         0.849312
 H         4.252226        -1.131609        -1.430778
 H         2.544369        -1.791170        -1.567956
 H         1.858911         1.182090        -2.717686
