19
Iteration:   629
 C        -0.083219         0.087772        -0.138954
 C         1.323466        -0.004486         0.193644
 C         2.025437         1.046333         1.094081
 C         3.331059         0.402697         0.540809
 C         3.063387        -1.241268         0.407502
 C         3.216599        -1.189236        -1.115114
 C         2.601477         0.239017        -0.866849
 O         2.334142         1.334147        -1.829862
 O         1.559113        -1.275779         0.627408
 H        -0.499909        -0.331939         0.723597
 H        -0.203258         1.146155        -0.340363
 H        -0.439670        -0.527794        -0.997531
 H         1.937246         2.053824         0.683340
 H         1.705740         1.219700         2.132236
 H         4.474571         0.630726         0.541235
 H         3.574676        -1.978436         1.064473
 H         4.298440        -1.151559        -1.448579
 H         2.605221        -1.898266        -1.799772
 H         3.032195         1.349709        -2.503876
