19
Iteration:  1942charge 0 multiplicity 1
 C        -0.103621        -0.006529        -0.273310
 C         1.301390         0.036140         0.099152
 C         1.971012         0.977238         1.085983
 C         3.294383         0.455571         0.561793
 C         3.090718        -1.213914         0.494677
 C         3.324349        -1.065851        -1.052724
 C         2.546166         0.249459        -0.841788
 O         2.295269         1.349528        -1.762061
 O         1.680025        -1.296278         0.580846
 H        -0.679188        -0.267389         0.686829
 H        -0.559735         0.897901        -0.579114
 H        -0.450052        -0.958280        -0.987264
 H         1.611358         1.957766         0.808071
 H         1.778545         0.846968         2.154395
 H         4.389825         0.664301         0.525669
 H         3.496376        -2.031404         1.029897
 H         4.372964        -0.896208        -1.179496
 H         2.993760        -1.799496        -1.759422
 H         2.870361         1.091463        -2.489352
