19
Iteration:  2131
 C        -0.086504         0.061504        -0.278585
 C         1.323302        -0.034676         0.151873
 C         2.037162         1.025704         1.072516
 C         3.308434         0.363251         0.548174
 C         3.077307        -1.158579         0.476247
 C         3.292614        -1.070135        -1.115337
 C         2.592919         0.299457        -0.840864
 O         2.189368         1.254067        -1.799617
 O         1.689095        -1.349967         0.627366
 H        -0.829970        -0.138208         0.427748
 H        -0.235132         1.090744        -0.750195
 H        -0.278508        -0.789390        -1.155415
 H         1.858577         2.023485         0.728001
 H         1.619712         1.014244         2.085015
 H         4.329006         0.681618         0.706889
 H         3.549333        -1.837416         1.268608
 H         4.335910        -1.014715        -1.223990
 H         2.839627        -1.823283        -1.716095
 H         2.732788         2.017659        -1.590563
