19
Iteration:  1273charge 0 multiplicity 1
 C        -0.214304        -0.002884        -0.239456
 C         1.292566         0.070336         0.041874
 C         1.880246         1.020224         1.151456
 C         3.246914         0.418802         0.524208
 C         3.080611        -1.178051         0.457703
 C         3.420159        -1.133946        -1.108870
 C         2.599872         0.205500        -0.919016
 O         2.341641         1.313095        -1.748045
 O         1.708396        -1.303652         0.621207
 H        -0.709131         0.134581         0.637136
 H        -0.602793         0.897091        -0.816508
 H        -0.392341        -0.947217        -0.593098
 H         1.674115         2.090533         1.064302
 H         1.671918         0.701555         2.208266
 H         4.245391         0.661147         0.901068
 H         3.543411        -1.762568         1.291233
 H         4.559626        -0.742137        -1.293913
 H         2.955796        -1.914374        -1.773441
 H         3.101849         1.465244        -2.301296
