19
Iteration:   391charge 0 multiplicity 1
 C        -0.059062         0.184706        -0.218129
 C         1.309508        -0.065098         0.169816
 C         2.017245         1.000568         1.093718
 C         3.275846         0.449135         0.494043
 C         3.106640        -1.180673         0.436889
 C         3.116492        -1.220890        -1.102633
 C         2.542507         0.223888        -0.899658
 O         2.498529         1.334259        -1.795929
 O         1.637400        -1.357462         0.671385
 H        -0.739406        -0.034115         0.558141
 H        -0.189272         1.240151        -0.574612
 H        -0.391599        -0.503554        -0.994223
 H         1.809775         2.021937         0.725588
 H         1.959780         0.939018         2.204345
 H         4.294918         0.992847         0.648696
 H         3.776454        -1.820039         1.067197
 H         4.170295        -1.222773        -1.517119
 H         2.370908        -1.922981        -1.557062
 H         1.585527         1.511039        -2.061828
