19
Iteration:  3837
 C        -0.141854         0.065785        -0.167990
 C         1.251732        -0.003485         0.214037
 C         2.059969         1.014242         1.122859
 C         3.334960         0.399172         0.440635
 C         3.161192        -1.210226         0.431598
 C         3.225908        -1.115666        -1.129840
 C         2.464737         0.225335        -0.926894
 O         2.232652         1.278867        -1.897132
 O         1.749030        -1.287568         0.752329
 H        -0.937932        -0.029694         0.673348
 H        -0.315243         1.092025        -0.465508
 H        -0.450840        -0.615028        -0.865049
 H         1.893232         2.043853         0.795601
 H         1.978287         0.855436         2.262530
 H         4.311691         0.866685         0.625108
 H         3.799357        -1.847559         1.073472
 H         4.274286        -0.836070        -1.358189
 H         2.871118        -1.931737        -1.825281
 H         3.106212         1.569755        -2.218777
