19
Iteration:   981charge 0 multiplicity 1
 C        -0.312468         0.077686        -0.331872
 C         1.261422        -0.006069         0.156894
 C         1.958962         0.977649         1.260034
 C         3.242788         0.424653         0.522925
 C         3.185328        -1.108403         0.481379
 C         3.311627        -1.133649        -1.057327
 C         2.550585         0.244680        -0.910757
 O         2.497760         1.240256        -1.872527
 O         1.738814        -1.304900         0.591603
 H        -0.985413        -0.506645         0.294897
 H        -0.545898         1.202062        -0.395503
 H        -0.519573        -0.216137        -1.351412
 H         1.852493         2.078951         1.260362
 H         1.812547         0.729985         2.435803
 H         4.224534         0.710044         0.626058
 H         3.710415        -1.932309         1.049691
 H         4.346084        -0.996146        -1.327095
 H         2.815735        -1.944036        -1.658731
 H         1.660742         1.721727        -1.707088
