19
Iteration:  4454
 C        -0.074436         0.060237        -0.411331
 C         1.310068         0.015774         0.150434
 C         2.104122         0.905748         1.201278
 C         3.250511         0.454988         0.393776
 C         3.177563        -1.144250         0.468291
 C         3.159367        -1.209673        -1.170586
 C         2.484809         0.188469        -0.843623
 O         2.252668         1.343198        -1.760977
 O         1.795035        -1.206242         0.808191
 H        -0.840258        -0.264047         0.328692
 H        -0.423424         1.128716        -0.600154
 H        -0.227594        -0.732840        -1.252131
 H         2.031257         1.997942         1.035607
 H         1.993175         0.685839         2.316984
 H         4.230792         0.866618         0.611023
 H         3.944717        -1.744342         1.091458
 H         4.196317        -1.177575        -1.540350
 H         2.499919        -1.906443        -1.732212
 H         1.417604         1.239385        -2.272083
