19
Iteration:  4328charge 0 multiplicity 1
 C        -0.121513         0.021812        -0.171194
 C         1.304746        -0.009374         0.150152
 C         2.004796         1.042843         1.089746
 C         3.328536         0.375463         0.419976
 C         3.206164        -1.186040         0.380518
 C         3.194507        -1.110585        -1.151570
 C         2.518646         0.259372        -0.878112
 O         2.304216         1.327451        -1.777553
 O         1.706308        -1.289191         0.764650
 H        -0.767053        -0.124504         0.762860
 H        -0.531236         0.945814        -0.560852
 H        -0.504751        -0.745040        -0.846592
 H         1.941634         2.118672         0.845600
 H         1.886939         0.788106         2.101109
 H         4.371531         0.735058         0.677105
 H         3.754122        -1.803211         1.167564
 H         4.203962        -0.788693        -1.364776
 H         2.696329        -1.843450        -1.837964
 H         2.076652         0.921005        -2.613985
