19
Iteration:  2464
 C        -0.084226         0.030374        -0.355571
 C         1.283936        -0.020970         0.088304
 C         1.959283         0.965993         1.144255
 C         3.247103         0.424649         0.491115
 C         3.174584        -1.148352         0.488152
 C         3.338270        -1.175986        -1.148632
 C         2.508880         0.233486        -0.858458
 O         2.289618         1.371843        -1.704744
 O         1.730224        -1.295344         0.717719
 H        -0.759975        -0.199297         0.421042
 H        -0.343983         1.113070        -0.427722
 H        -0.263628        -0.495890        -1.236102
 H         1.860471         2.019186         0.937975
 H         1.668277         0.795689         2.216526
 H         4.227692         0.852003         0.403552
 H         3.801315        -1.720513         1.251231
 H         4.377764        -0.932499        -1.592839
 H         2.770641        -1.988013        -1.706207
 H         1.737581         1.157574        -2.463150
