19
Iteration:   109charge 0 multiplicity 1
 C        -0.249335         0.180583        -0.233967
 C         1.298636         0.074195         0.102375
 C         1.974173         0.923179         1.118877
 C         3.245734         0.413255         0.516759
 C         3.117943        -1.203446         0.421584
 C         3.153296        -1.146025        -1.086704
 C         2.500359         0.290334        -0.866305
 O         2.595584         1.199881        -1.855094
 O         1.772589        -1.331233         0.719686
 H        -0.808256         0.059007         0.776042
 H        -0.419767         1.233863        -0.685615
 H        -0.578419        -0.616479        -0.972173
 H         2.052593         2.029695         0.901846
 H         1.734174         0.731570         2.180057
 H         4.128157         1.060169         0.468309
 H         3.721208        -1.920571         0.985242
 H         4.060333        -1.065110        -1.561456
 H         2.562888        -1.919553        -1.469511
 H         1.705879         1.652108        -1.934165
