19
Iteration:   940
 C        -0.100375        -0.022328        -0.216683
 C         1.324937        -0.053663         0.096842
 C         1.914565         1.035667         1.092076
 C         3.234517         0.410782         0.586422
 C         3.046505        -1.231198         0.464619
 C         3.215527        -1.041585        -1.064849
 C         2.601441         0.290104        -0.868437
 O         2.538602         1.344895        -1.888023
 O         1.672018        -1.333605         0.627278
 H        -0.585710        -0.271172         0.763244
 H        -0.445980         0.947022        -0.273167
 H        -0.423205        -0.607935        -1.074339
 H         1.683044         2.049768         0.742901
 H         1.567885         0.882251         2.108849
 H         4.293282         0.734018         0.941091
 H         3.681591        -1.865974         1.133291
 H         4.304648        -0.969576        -1.394647
 H         2.587827        -1.876822        -1.653154
 H         1.657056         1.678364        -2.014573
