19
Iteration:  4551charge 0 multiplicity 1
 C        -0.233460         0.034277        -0.017845
 C         1.215724        -0.024905         0.272501
 C         1.998913         0.985973         1.123573
 C         3.201208         0.424727         0.348497
 C         3.216635        -1.128448         0.375303
 C         3.328793        -1.093404        -1.061639
 C         2.459761         0.268192        -0.954351
 O         2.546597         1.317153        -1.841688
 O         1.676694        -1.354301         0.594637
 H        -0.658042        -0.091404         1.027864
 H        -0.673247         1.037618        -0.313679
 H        -0.713277        -0.761359        -0.462525
 H         1.699800         1.968102         0.800967
 H         1.943494         0.815061         2.215340
 H         4.145656         1.011560         0.391271
 H         3.796926        -1.698093         1.187031
 H         4.391243        -1.090324        -1.493478
 H         2.807594        -1.890777        -1.630053
 H         1.969500         1.231424        -2.613549
