19
Iteration:  4988charge 0 multiplicity 1
 C        -0.112990         0.127340        -0.221133
 C         1.348579        -0.005968         0.183612
 C         1.968187         0.948594         1.225494
 C         3.267900         0.408633         0.430043
 C         3.172821        -1.119546         0.441232
 C         3.212229        -1.064357        -1.116418
 C         2.463753         0.238334        -0.909440
 O         2.349645         1.200537        -1.987713
 O         1.785217        -1.306347         0.767880
 H        -0.661039        -0.059755         0.714349
 H        -0.404409         1.115533        -0.572044
 H        -0.456745        -0.705991        -0.970492
 H         1.997747         2.094029         1.049828
 H         1.805072         0.713595         2.369850
 H         4.229366         0.889046         0.441675
 H         3.815571        -1.721315         1.079261
 H         4.176586        -0.863648        -1.523505
 H         2.634156        -2.050783        -1.371810
 H         1.393321         1.417186        -1.912590
