19
Iteration:  3513
 C        -0.163614        -0.003891        -0.162817
 C         1.322320         0.009107         0.147259
 C         2.044260         0.907613         1.190069
 C         3.276501         0.408872         0.535432
 C         3.165292        -1.119905         0.429595
 C         3.202681        -1.061301        -1.097544
 C         2.511982         0.271008        -0.965090
 O         2.406486         1.329121        -1.929137
 O         1.704619        -1.283148         0.750796
 H        -0.875725        -0.055859         0.770379
 H        -0.400907         0.934996        -0.584021
 H        -0.578912        -0.886861        -0.845007
 H         1.815864         1.998293         1.020446
 H         1.678996         0.708230         2.196765
 H         4.310701         0.768460         0.514272
 H         3.901737        -1.830096         0.799455
 H         4.250871        -1.115737        -1.478435
 H         2.565728        -1.842191        -1.569838
 H         1.774332         1.187464        -2.696627
