19
Iteration:  4187charge 0 multiplicity 1
 C        -0.171293         0.009046        -0.019963
 C         1.254635        -0.109779         0.137473
 C         1.897598         0.951210         1.124949
 C         3.297902         0.427806         0.418657
 C         3.148504        -1.101979         0.402431
 C         3.219563        -1.047589        -1.166092
 C         2.567623         0.315403        -0.935917
 O         2.404781         1.302710        -1.929116
 O         1.723416        -1.364126         0.792702
 H        -0.756507         0.052752         1.030929
 H        -0.230408         1.046030        -0.560756
 H        -0.565655        -0.805644        -0.672239
 H         1.735600         1.956261         0.665241
 H         1.760172         0.804611         2.160149
 H         4.260675         0.996566         0.587834
 H         3.765137        -1.892584         0.956432
 H         4.239242        -0.889975        -1.423461
 H         2.557196        -1.861162        -1.573125
 H         3.132450         1.775842        -2.334432
