19
Iteration:  4732charge 0 multiplicity 1
 C        -0.171743        -0.030507        -0.031161
 C         1.298156        -0.057009         0.155435
 C         1.941818         0.935793         1.006651
 C         3.271011         0.485994         0.443023
 C         3.146604        -1.117029         0.335515
 C         3.133960        -1.099288        -1.105958
 C         2.509788         0.291599        -0.892324
 O         2.502640         1.309892        -1.817934
 O         1.742205        -1.306932         0.739953
 H        -0.706743        -0.075428         0.941006
 H        -0.293561         1.055762        -0.306573
 H        -0.627302        -0.717523        -0.762288
 H         2.021393         1.966612         0.529474
 H         1.709449         1.087718         2.119777
 H         4.271806         1.019974         0.514779
 H         3.820164        -1.657554         0.978883
 H         4.216827        -1.151556        -1.388944
 H         2.515052        -1.895018        -1.468458
 H         2.131339         0.939727        -2.648548
