19
Iteration:  4191
 C        -0.191095         0.004298         0.010082
 C         1.290209        -0.086235         0.147899
 C         1.912759         0.937792         1.118068
 C         3.208521         0.439394         0.418786
 C         3.166159        -1.104009         0.367483
 C         3.198208        -1.041877        -1.130489
 C         2.577767         0.305913        -0.932446
 O         2.419153         1.261089        -1.938215
 O         1.729069        -1.343105         0.756805
 H        -0.697773         0.081771         0.927596
 H        -0.166088         1.038018        -0.434945
 H        -0.593023        -0.770853        -0.574404
 H         1.681636         1.915829         0.615018
 H         1.810847         0.823646         2.258152
 H         4.202939         0.875332         0.654347
 H         3.759873        -1.776148         0.893468
 H         4.315428        -0.836870        -1.372112
 H         2.681170        -1.807070        -1.701409
 H         3.204701         1.833063        -2.165852
