19
Iteration:  2181charge 0 multiplicity 1
 C        -0.112533         0.066849        -0.424167
 C         1.293733        -0.006483         0.165103
 C         2.008912         0.855288         1.262595
 C         3.254185         0.463153         0.532193
 C         3.191554        -1.100469         0.426606
 C         3.162026        -1.080971        -1.056319
 C         2.525131         0.271029        -0.905834
 O         2.316592         1.276381        -1.791513
 O         1.747707        -1.315842         0.670214
 H        -0.902476         0.156641         0.464536
 H        -0.183326         0.980970        -1.004728
 H        -0.357146        -0.735160        -0.994960
 H         1.680546         1.889359         1.063036
 H         1.797189         0.728141         2.362373
 H         4.157582         1.015865         0.833005
 H         3.721587        -1.850412         1.025822
 H         4.189949        -0.935124        -1.581624
 H         2.538724        -1.896376        -1.544835
 H         2.976927         1.190993        -2.486407
