19
Iteration:  3442
 C        -0.148476         0.113167        -0.258358
 C         1.312917        -0.046673         0.088387
 C         1.932218         0.948395         1.125816
 C         3.318201         0.431120         0.492923
 C         3.198070        -1.147905         0.378628
 C         3.182155        -1.097824        -1.137544
 C         2.572916         0.219527        -0.884962
 O         2.341135         1.267549        -1.798414
 O         1.792587        -1.270988         0.800868
 H        -0.780480        -0.219605         0.472741
 H        -0.404003         1.224275        -0.332320
 H        -0.376220        -0.470676        -1.119759
 H         1.783228         2.014718         0.884505
 H         1.642725         0.684511         2.158104
 H         4.272500         1.009743         0.479827
 H         3.633002        -2.048057         0.930384
 H         4.245709        -1.125394        -1.460997
 H         2.604381        -1.906624        -1.571996
 H         1.360591         1.389200        -1.941589
