19
Iteration:  2325charge 0 multiplicity 1
 C        -0.034540         0.020172        -0.466297
 C         1.347569         0.050256         0.201169
 C         2.022888         0.918882         1.234858
 C         3.241709         0.434276         0.534721
 C         3.101453        -1.149794         0.460717
 C         3.177165        -1.132848        -1.058813
 C         2.565692         0.324764        -0.843104
 O         2.265509         1.338996        -1.811349
 O         1.758291        -1.327741         0.667403
 H        -0.917842        -0.044896         0.304387
 H        -0.226591         0.876400        -0.989871
 H         0.041312        -0.785523        -1.205220
 H         1.765525         1.975506         1.180415
 H         1.920571         0.658350         2.315723
 H         4.203424         0.874459         0.643773
 H         3.789235        -1.875733         0.971641
 H         4.252367        -0.978723        -1.396294
 H         2.708881        -1.948313        -1.724289
 H         1.546695         1.020368        -2.356175
