19
Iteration:   613
 C        -0.166319         0.174955        -0.161798
 C         1.326331         0.052892         0.094273
 C         2.033158         0.980597         1.105456
 C         3.288482         0.370859         0.473752
 C         3.074084        -1.186093         0.425032
 C         3.173215        -1.116976        -1.150738
 C         2.546751         0.203938        -0.887999
 O         2.395023         1.196773        -1.802353
 O         1.682282        -1.279639         0.698000
 H        -0.793741        -0.212590         0.718823
 H        -0.553720         1.207353        -0.284356
 H        -0.407074        -0.392491        -1.039597
 H         1.892878         2.075484         0.836139
 H         1.849246         0.712067         2.167158
 H         4.229436         0.791036         0.657558
 H         3.678892        -1.891859         0.986266
 H         4.275800        -1.063833        -1.426346
 H         2.628055        -1.926877        -1.661541
 H         3.177056         1.795265        -1.869049
