19
Iteration:   812charge 0 multiplicity 1
 C        -0.227145         0.019737        -0.307712
 C         1.213523         0.003515         0.144823
 C         2.110284         0.961739         1.261835
 C         3.318316         0.446372         0.544640
 C         3.109157        -1.158704         0.439306
 C         3.231462        -1.060822        -1.065004
 C         2.586022         0.303800        -0.872070
 O         2.412995         1.231233        -1.964938
 O         1.607155        -1.293571         0.676490
 H        -0.679515        -0.612153         0.565160
 H        -0.789721         0.901584        -0.655653
 H        -0.403523        -0.817899        -1.111163
 H         1.726410         2.051829         1.066348
 H         2.020430         0.705929         2.358447
 H         4.449346         0.729043         0.711997
 H         3.620162        -1.849692         1.126757
 H         4.307927        -1.010027        -1.295337
 H         2.746609        -1.720860        -1.731035
 H         3.100458         1.967335        -1.981525
