19
Iteration:  1063
 C        -0.062524         0.035688        -0.315161
 C         1.267869        -0.056287         0.134789
 C         1.920403         0.950854         1.173330
 C         3.171004         0.520941         0.441024
 C         3.057838        -1.125383         0.428928
 C         3.296925        -1.169518        -1.098223
 C         2.559604         0.228052        -0.883277
 O         2.453552         1.306841        -1.773626
 O         1.697918        -1.329123         0.676287
 H        -0.660319         0.224017         0.605359
 H        -0.150894         0.956775        -0.877814
 H        -0.477386        -0.861873        -0.810841
 H         1.691407         2.054994         1.009386
 H         1.766971         0.614236         2.164334
 H         4.318831         0.933273         0.450913
 H         3.620130        -1.712919         1.120007
 H         4.445691        -1.116118        -1.374842
 H         2.697191        -1.985019        -1.717029
 H         2.317515         2.166382        -1.398346
