19
Iteration:  4572charge 0 multiplicity 1
 C        -0.209478        -0.041060        -0.030461
 C         1.308206        -0.005727         0.136798
 C         1.976902         0.993318         1.128240
 C         3.334530         0.475619         0.546354
 C         3.100598        -1.118394         0.388513
 C         3.147880        -1.075808        -1.183158
 C         2.541134         0.253347        -0.914828
 O         2.490390         1.281043        -1.888009
 O         1.764411        -1.296992         0.676246
 H        -0.951117        -0.172642         0.818374
 H        -0.489197         1.011444        -0.421250
 H        -0.604849        -0.763015        -0.688373
 H         1.728772         1.996683         0.875206
 H         1.647400         0.751036         2.170382
 H         4.360600         0.815669         0.858742
 H         3.705200        -1.860882         1.008068
 H         4.261486        -0.894736        -1.542135
 H         2.609374        -1.819242        -1.835781
 H         1.796471         0.953649        -2.520439
