19
Iteration:  1971
 C        -0.098725         0.040774        -0.436960
 C         1.259422         0.001862         0.236786
 C         1.913944         0.826477         1.259158
 C         3.253095         0.517733         0.563185
 C         3.248165        -1.100085         0.424005
 C         3.199281        -1.096736        -1.186909
 C         2.508371         0.281550        -0.822383
 O         2.336420         1.240371        -1.865276
 O         1.735579        -1.293626         0.728778
 H        -0.944037         0.081102         0.352897
 H        -0.163492         1.060927        -0.989215
 H        -0.103782        -0.674295        -1.102424
 H         1.623354         1.949141         1.147270
 H         1.737524         0.603276         2.323904
 H         4.251168         1.015689         0.586771
 H         3.767912        -1.862128         1.031771
 H         4.101545        -1.139952        -1.843741
 H         2.461673        -1.841693        -1.560062
 H         3.235617         1.533914        -2.007060
