19
Iteration:  2965
 C        -0.139018        -0.027102        -0.400529
 C         1.290464         0.094284         0.202626
 C         2.099745         0.980230         1.218196
 C         3.354497         0.353177         0.492612
 C         3.150162        -1.185842         0.419658
 C         3.155570        -1.015619        -1.125766
 C         2.479465         0.304965        -0.819021
 O         2.266409         1.187749        -1.845192
 O         1.720909        -1.270377         0.717001
 H        -1.001311        -0.501207         0.232512
 H        -0.369759         1.027492        -0.810703
 H         0.015794        -0.776443        -1.120214
 H         2.228797         2.041909         1.196151
 H         2.024852         0.647954         2.233943
 H         4.342337         0.828823         0.449934
 H         3.874688        -1.893859         0.842278
 H         4.248566        -0.837310        -1.445558
 H         2.626434        -1.839627        -1.644312
 H         2.042277         2.106978        -1.540633
