19
Iteration:  4179charge 0 multiplicity 1
 C        -0.187981         0.015677        -0.103170
 C         1.270364        -0.097365         0.180420
 C         1.934879         0.947967         1.074921
 C         3.370900         0.459352         0.469156
 C         3.137807        -1.146588         0.465630
 C         3.204783        -1.075233        -1.185023
 C         2.554883         0.297229        -0.944735
 O         2.341761         1.366759        -1.898894
 O         1.742538        -1.362015         0.797305
 H        -0.692934        -0.030354         0.861765
 H        -0.556944         0.917896        -0.684468
 H        -0.563327        -0.748186        -0.698104
 H         1.777168         2.062859         0.907116
 H         1.644376         0.802883         2.163610
 H         4.346694         1.029663         0.464420
 H         3.761310        -1.822002         1.009499
 H         4.240671        -1.131579        -1.677163
 H         2.607444        -1.884518        -1.620145
 H         3.182964         1.449184        -2.391027
