19
Iteration:  1738charge 0 multiplicity 1
 C        -0.205003        -0.078608        -0.213646
 C         1.284420         0.056816         0.038468
 C         1.967066         0.930232         1.197393
 C         3.218738         0.411448         0.609058
 C         3.107780        -1.136432         0.462827
 C         3.357448        -1.045909        -1.017177
 C         2.549347         0.292813        -0.880117
 O         2.412943         1.289040        -1.880271
 O         1.651445        -1.255933         0.554570
 H        -0.560545        -0.345907         0.841961
 H        -0.651357         0.833919        -0.553847
 H        -0.356230        -0.862342        -1.081632
 H         1.784020         1.971834         1.012886
 H         1.613504         0.662551         2.256313
 H         4.218246         0.831605         0.689821
 H         3.669054        -1.905634         1.006347
 H         4.295982        -0.910465        -1.473700
 H         2.774187        -1.846790        -1.448459
 H         3.346213         1.417470        -2.211942
