19
Iteration:  1445charge 0 multiplicity 1
 C        -0.141496         0.040892        -0.246568
 C         1.282539        -0.015758         0.036807
 C         1.878668         0.855752         1.205304
 C         3.247885         0.449675         0.560847
 C         3.155162        -1.067141         0.475286
 C         3.296765        -1.049512        -1.097902
 C         2.535294         0.286954        -0.840388
 O         2.442933         1.225226        -1.857589
 O         1.649885        -1.277071         0.602190
 H        -0.761974         0.014226         0.803155
 H        -0.501470         0.833778        -0.918315
 H        -0.479216        -0.877134        -0.637393
 H         1.595819         1.905396         1.236429
 H         1.804426         0.439748         2.242458
 H         4.260217         0.904594         0.614306
 H         3.726877        -1.618785         1.236507
 H         4.267148        -0.811149        -1.673377
 H         2.716073        -1.877957        -1.558433
 H         3.351547         1.441896        -2.191156
