19
Iteration:  2170
 C        -0.121596         0.145291        -0.430928
 C         1.281322        -0.008941         0.161749
 C         1.919020         0.904460         1.216992
 C         3.261943         0.424947         0.534402
 C         3.155323        -1.071440         0.475191
 C         3.233605        -1.144450        -1.155458
 C         2.498714         0.204979        -0.840436
 O         2.249693         1.275375        -1.749658
 O         1.818546        -1.314659         0.694008
 H        -1.085382         0.191691         0.259766
 H         0.007403         1.012206        -1.045828
 H        -0.210363        -0.632084        -1.059109
 H         1.857731         1.994549         1.071023
 H         1.910125         0.523177         2.277153
 H         4.301950         0.789272         0.452204
 H         3.884489        -1.660023         1.037478
 H         4.309959        -1.087772        -1.600360
 H         2.624279        -1.993204        -1.610328
 H         3.085024         1.565734        -2.227125
