19
Iteration:  3439charge 0 multiplicity 1
 C        -0.143038         0.125696        -0.251057
 C         1.308890        -0.051944         0.097383
 C         1.952864         0.949797         1.144353
 C         3.313095         0.478252         0.477213
 C         3.207748        -1.131967         0.384186
 C         3.183880        -1.130041        -1.149418
 C         2.532886         0.225238        -0.870595
 O         2.373275         1.258031        -1.790915
 O         1.770764        -1.279760         0.766333
 H        -0.744487        -0.274064         0.573875
 H        -0.492750         1.156885        -0.263231
 H        -0.390831        -0.639326        -1.175679
 H         1.795022         2.106732         0.882844
 H         1.663188         0.638157         2.208248
 H         4.239979         0.995543         0.426976
 H         3.528479        -2.013048         1.000344
 H         4.265485        -1.050954        -1.491979
 H         2.657688        -1.973749        -1.607341
 H         1.435028         1.357356        -1.949816
