19
Iteration:   514
 C        -0.092998         0.185495        -0.207334
 C         1.323172        -0.063385         0.150521
 C         2.099431         1.018569         1.028029
 C         3.308703         0.447675         0.362222
 C         3.074396        -1.226695         0.433364
 C         3.207342        -1.151049        -1.071808
 C         2.503285         0.219708        -0.861309
 O         2.400795         1.340738        -1.693978
 O         1.602823        -1.344562         0.710192
 H        -0.726248         0.199373         0.684469
 H        -0.212358         1.133406        -0.673960
 H        -0.506040        -0.517831        -0.834914
 H         1.813120         2.058242         0.992011
 H         1.977625         0.808053         2.125245
 H         4.264784         0.766285         0.178569
 H         3.447994        -2.070966         1.036372
 H         4.337305        -1.128448        -1.357616
 H         2.529501        -1.863579        -1.605581
 H         2.461635         1.048435        -2.607240
