19
Iteration:  4913charge 0 multiplicity 1
 C        -0.183728         0.003626        -0.179353
 C         1.311303        -0.033698         0.183539
 C         1.990279         0.992867         1.223955
 C         3.239289         0.494719         0.375284
 C         3.170545        -1.086271         0.401831
 C         3.113856        -1.112555        -1.111600
 C         2.531600         0.290341        -0.939161
 O         2.424291         1.188284        -1.946360
 O         1.786090        -1.329913         0.820939
 H        -0.783214        -0.214735         0.698979
 H        -0.489569         0.923960        -0.649771
 H        -0.416377        -0.696724        -1.075321
 H         1.662688         2.001264         1.042171
 H         1.927746         0.694774         2.245785
 H         4.253346         0.910468         0.427726
 H         3.957448        -1.637786         0.906456
 H         4.073455        -1.123816        -1.566174
 H         2.343690        -1.743823        -1.646283
 H         2.557331         2.092245        -1.637568
