19
Iteration:  1983charge 0 multiplicity 1
 C        -0.048632         0.095938        -0.454342
 C         1.318405        -0.055826         0.184631
 C         1.903440         0.951702         1.292296
 C         3.234603         0.473329         0.554811
 C         3.183886        -1.165742         0.371909
 C         3.081547        -1.051243        -1.099620
 C         2.458709         0.267386        -0.827491
 O         2.354737         1.182756        -1.857054
 O         1.842236        -1.301880         0.721580
 H        -1.005682        -0.088622         0.226912
 H        -0.081102         1.030240        -1.083115
 H        -0.197199        -0.693391        -1.062308
 H         1.497433         2.023692         1.207486
 H         1.786701         0.437503         2.256794
 H         4.215268         1.031245         0.650728
 H         3.872958        -1.751514         0.930351
 H         4.064948        -0.802265        -1.490182
 H         2.569231        -1.830355        -1.661351
 H         3.067591         1.891061        -1.876433
