19
Iteration:  3343charge 0 multiplicity 1
 C        -0.202001         0.071862        -0.185979
 C         1.257097        -0.023492         0.211039
 C         2.106618         1.022783         1.147853
 C         3.296056         0.447325         0.379901
 C         3.121858        -1.128716         0.448178
 C         3.241076        -1.139880        -1.077870
 C         2.514409         0.238049        -0.859838
 O         2.291283         1.281966        -1.810206
 O         1.705639        -1.360662         0.603844
 H        -0.907247         0.062522         0.611545
 H        -0.401615         0.993059        -0.765882
 H        -0.333309        -0.912113        -0.711555
 H         1.948417         2.083569         0.967595
 H         2.049115         0.724516         2.172846
 H         4.283420         0.902978         0.406576
 H         3.851291        -1.847224         0.983402
 H         4.294299        -1.021411        -1.458272
 H         2.677530        -1.922606        -1.546793
 H         3.082903         1.871612        -1.924974
