19
Iteration:  2642
 C        -0.035158         0.083247        -0.434903
 C         1.315387         0.031769         0.204177
 C         1.967239         0.874369         1.268072
 C         3.289229         0.393979         0.561398
 C         3.202395        -1.098254         0.398828
 C         3.127054        -1.034068        -1.139597
 C         2.478214         0.255566        -0.847014
 O         2.236379         1.196521        -1.878581
 O         1.786247        -1.286116         0.762882
 H        -0.932044        -0.291438         0.271673
 H        -0.288036         0.978024        -0.870210
 H        -0.192419        -0.627519        -1.320616
 H         1.850449         1.972486         1.062079
 H         1.820481         0.648404         2.302159
 H         4.328554         0.793736         0.737385
 H         3.915967        -1.760570         0.823540
 H         4.132140        -0.872824        -1.623094
 H         2.559798        -1.880316        -1.759519
 H         2.831725         1.925360        -1.704569
