19
Iteration:  2568charge 0 multiplicity 1
 C        -0.200576        -0.025934        -0.023646
 C         1.252206        -0.074010         0.161647
 C         1.944414         1.011668         1.093255
 C         3.255952         0.458205         0.528423
 C         3.095192        -1.167093         0.396811
 C         3.354010        -1.045846        -1.098991
 C         2.609963         0.324175        -0.945772
 O         2.515653         1.328515        -1.806771
 O         1.620959        -1.358979         0.580844
 H        -0.767371        -0.367460         0.947909
 H        -0.603854         0.836606        -0.407128
 H        -0.613194        -0.847503        -0.695015
 H         1.683728         1.932550         0.525434
 H         1.619852         1.093488         2.134292
 H         4.189803         1.055024         0.763423
 H         3.584278        -1.951699         1.019234
 H         4.382778        -0.726083        -1.343312
 H         3.065347        -1.915317        -1.798651
 H         2.071496         1.140319        -2.678386
