19
Iteration:  3865charge 0 multiplicity 1
 C        -0.180829        -0.079061         0.005346
 C         1.258093         0.081155         0.098786
 C         2.013533         1.045741         1.097391
 C         3.312083         0.402151         0.425577
 C         3.064970        -1.138915         0.429019
 C         3.145784        -1.098267        -1.136263
 C         2.589458         0.259977        -0.919006
 O         2.392007         1.253961        -1.811951
 O         1.743821        -1.233080         0.638542
 H        -0.685545        -0.239925         0.926140
 H        -0.650062         0.890931        -0.359783
 H        -0.472155        -1.087856        -0.580044
 H         1.841398         2.122829         0.966068
 H         1.865806         0.799175         2.146526
 H         4.358455         0.693401         0.662712
 H         3.708108        -1.752539         1.057994
 H         4.217807        -1.143167        -1.484804
 H         2.745429        -1.909851        -1.783780
 H         2.983841         1.161813        -2.595629
