19
Iteration:  1188
 C        -0.051727        -0.005824        -0.420564
 C         1.306825        -0.013301         0.131716
 C         2.026313         1.044524         1.191562
 C         3.305631         0.424256         0.575513
 C         3.081021        -1.165773         0.513529
 C         3.278881        -1.012934        -1.071141
 C         2.562695         0.267400        -0.871203
 O         2.245944         1.272718        -1.815708
 O         1.615275        -1.370969         0.675638
 H        -0.658483        -0.554655         0.330536
 H        -0.439136         1.128871        -0.632864
 H        -0.125390        -0.562763        -1.413617
 H         1.903814         2.023593         0.834020
 H         1.866939         0.927677         2.276111
 H         4.237999         0.835197         0.743868
 H         3.616869        -1.913138         1.129259
 H         4.371181        -0.930945        -1.272344
 H         2.859561        -1.772036        -1.729261
 H         2.985861         1.462743        -2.418230
