19
Iteration:  1773charge 0 multiplicity 1
 C        -0.117350        -0.027858        -0.299140
 C         1.275565         0.001493         0.186222
 C         1.922257         0.933840         1.266821
 C         3.192172         0.487360         0.594679
 C         3.088936        -1.147543         0.351418
 C         3.286959        -1.000298        -1.104086
 C         2.575963         0.321754        -0.848157
 O         2.449366         1.235981        -1.911393
 O         1.687249        -1.319701         0.661773
 H        -1.026757        -0.141115         0.502731
 H        -0.418285         0.959961        -0.877193
 H        -0.338793        -0.952969        -0.817984
 H         1.623922         1.962881         1.029335
 H         1.673550         0.655504         2.323953
 H         4.159460         0.876999         0.773318
 H         3.685081        -1.980265         0.849224
 H         4.236339        -1.009068        -1.475704
 H         2.688995        -1.713677        -1.603666
 H         3.361938         1.393381        -2.289486
