19
Iteration:  4500
 C        -0.126533         0.013818        -0.131087
 C         1.303862        -0.024838         0.174524
 C         2.014115         1.045460         1.147448
 C         3.317524         0.403461         0.587641
 C         3.097485        -1.136577         0.414056
 C         3.134128        -1.084348        -1.185261
 C         2.589221         0.319567        -0.903702
 O         2.368176         1.265435        -1.874241
 O         1.765534        -1.341560         0.667497
 H        -0.856503        -0.143302         0.653661
 H        -0.414318         0.991201        -0.492015
 H        -0.420460        -0.885237        -0.869892
 H         1.824522         2.123472         0.806818
 H         1.812980         1.034045         2.259472
 H         4.332699         0.830397         0.705651
 H         3.726281        -1.896400         1.016925
 H         4.110361        -0.827719        -1.617045
 H         2.606041        -1.962013        -1.621741
 H         1.715189         1.050392        -2.581936
