19
Iteration:  2718charge 0 multiplicity 1
 C        -0.262663         0.052664        -0.098026
 C         1.284947        -0.048239         0.137655
 C         1.891940         0.886148         1.158112
 C         3.219471         0.493035         0.504368
 C         3.149551        -1.107409         0.364683
 C         3.226715        -0.990434        -1.189523
 C         2.550136         0.261794        -0.923219
 O         2.588774         1.276752        -1.820263
 O         1.748673        -1.335684         0.704869
 H        -0.762395        -0.125153         0.978516
 H        -0.727903         0.865884        -0.615294
 H        -0.505395        -0.832727        -0.810974
 H         1.715464         1.996383         1.147418
 H         1.714835         0.584756         2.170077
 H         4.246588         0.969153         0.581199
 H         3.754759        -1.821361         0.914868
 H         4.247438        -0.961200        -1.509489
 H         2.749802        -1.829731        -1.665089
 H         1.983455         1.064649        -2.599096
