19
Iteration:   280
 C        -0.190594         0.170022        -0.154099
 C         1.269846         0.036657         0.159798
 C         2.056986         0.970606         1.149094
 C         3.304791         0.371300         0.520956
 C         3.059592        -1.258233         0.405850
 C         3.281157        -1.189375        -1.102493
 C         2.507604         0.204418        -0.927056
 O         2.493072         1.318281        -1.840932
 O         1.619214        -1.255245         0.680553
 H        -0.732003        -0.050369         0.709528
 H        -0.365118         1.195503        -0.434036
 H        -0.451688        -0.511414        -0.978060
 H         2.110793         2.044395         0.836816
 H         1.789500         1.065631         2.185462
 H         4.404043         0.817811         0.505600
 H         3.450802        -2.003946         1.047340
 H         4.315788        -0.902277        -1.410394
 H         2.902548        -2.014529        -1.750514
 H         1.833864         1.219453        -2.573311
