19
Iteration:  3478
 C        -0.032349         0.047911        -0.340452
 C         1.369886         0.010254         0.226808
 C         2.076819         1.048924         1.195441
 C         3.352566         0.450701         0.497994
 C         3.130470        -1.170810         0.427203
 C         3.203660        -1.069350        -1.081355
 C         2.469518         0.220576        -0.864779
 O         2.240617         1.221086        -1.780684
 O         1.680012        -1.305400         0.639903
 H        -0.892821        -0.182611         0.412915
 H        -0.235463         1.019421        -0.797635
 H        -0.029089        -0.640518        -1.106647
 H         1.884303         2.008872         0.866522
 H         1.980201         0.908463         2.242994
 H         4.345478         0.954494         0.261115
 H         3.786735        -1.946542         0.788060
 H         4.210380        -1.005959        -1.445851
 H         2.644824        -1.921070        -1.548808
 H         1.255568         1.230457        -1.950304
