19
Iteration:  2758
 C        -0.243321        -0.040231        -0.057743
 C         1.231039         0.073833         0.138916
 C         2.013911         0.970019         1.167628
 C         3.283587         0.455477         0.549239
 C         3.125285        -1.127566         0.401550
 C         3.282475        -1.073292        -1.131531
 C         2.558702         0.306812        -0.889354
 O         2.409907         1.245164        -1.894661
 O         1.683587        -1.350448         0.588524
 H        -0.722400        -0.408075         0.725967
 H        -0.732880         0.963787        -0.422090
 H        -0.399169        -0.710962        -0.888990
 H         1.824483         2.035153         0.919756
 H         1.778338         0.706284         2.224541
 H         4.247753         0.917056         0.755305
 H         3.703575        -1.919293         0.849664
 H         4.328828        -0.928629        -1.530962
 H         2.696044        -1.832549        -1.642196
 H         3.281528         1.615211        -2.048146
