19
Iteration:  1979charge 0 multiplicity 1
 C        -0.091540         0.101745        -0.447445
 C         1.294656        -0.052769         0.225624
 C         1.902120         0.920041         1.280822
 C         3.245176         0.498714         0.582175
 C         3.217797        -1.159596         0.372487
 C         3.112743        -1.067168        -1.127122
 C         2.455103         0.264034        -0.831535
 O         2.361228         1.201045        -1.859611
 O         1.811899        -1.280082         0.724391
 H        -0.844853        -0.016077         0.255156
 H        -0.094794         1.029345        -1.095087
 H        -0.027707        -0.811109        -1.181038
 H         1.457627         1.917289         1.191787
 H         1.780639         0.425322         2.250613
 H         4.195121         0.988551         0.578018
 H         3.920589        -1.796033         1.036341
 H         4.165972        -0.930368        -1.665320
 H         2.479973        -1.854611        -1.688566
 H         3.087264         1.784614        -1.978028
