19
Iteration:  1997
 C        -0.048889         0.019329        -0.425126
 C         1.294833         0.023682         0.153836
 C         1.960606         0.901933         1.218089
 C         3.250745         0.474100         0.515961
 C         3.149832        -1.109394         0.456437
 C         3.191307        -1.020195        -1.116216
 C         2.502906         0.298058        -0.813119
 O         2.302677         1.202919        -1.861598
 O         1.735677        -1.392178         0.736830
 H        -0.770267         0.166136         0.420212
 H        -0.054553         0.962774        -0.893042
 H        -0.176768        -0.738588        -1.337880
 H         1.975393         1.955553         1.003567
 H         1.739122         0.810821         2.288061
 H         4.272159         0.880399         0.637456
 H         3.750715        -1.854586         0.935076
 H         4.139145        -0.894302        -1.528276
 H         2.683934        -1.776268        -1.661836
 H         2.730714         1.991357        -1.549125
