19
Iteration:   459charge 0 multiplicity 1
 C        -0.118264         0.089484        -0.192848
 C         1.352678         0.110497         0.153165
 C         2.153193         0.924002         1.231724
 C         3.323239         0.450607         0.511393
 C         3.003950        -1.163537         0.429888
 C         3.058430        -1.067786        -1.103045
 C         2.549756         0.298524        -0.855748
 O         2.477644         1.205492        -1.883291
 O         1.597920        -1.294285         0.610175
 H        -0.616510        -0.171867         0.720637
 H        -0.567542         0.920198        -0.683381
 H        -0.264266        -0.752247        -0.778177
 H         2.050453         1.986823         1.034604
 H         1.901329         0.544127         2.254720
 H         4.320655         0.660260         0.736321
 H         3.458229        -1.970641         1.062281
 H         4.237853        -0.936987        -1.269110
 H         2.553498        -1.725360        -1.910889
 H         2.367346         0.707471        -2.698532
