19
Iteration:  1147charge 0 multiplicity 1
 C        -0.198495         0.100225        -0.356868
 C         1.342277        -0.050575         0.026809
 C         1.957798         0.860075         1.123797
 C         3.218532         0.430661         0.567160
 C         3.184996        -1.091634         0.520354
 C         3.249262        -1.055510        -1.011541
 C         2.538118         0.232107        -0.875390
 O         2.357961         1.303774        -1.808250
 O         1.699643        -1.330871         0.688942
 H        -0.540998        -0.325242         0.652905
 H        -0.370456         1.149177        -0.540448
 H        -0.467362        -0.439361        -1.307266
 H         1.846104         1.972680         0.972052
 H         1.624957         0.722127         2.185370
 H         4.221989         0.869802         0.665465
 H         3.803627        -1.773201         1.088457
 H         4.169027        -0.835474        -1.453402
 H         2.691230        -1.772947        -1.620381
 H         3.111416         1.294010        -2.468356
