19
Iteration:  4707charge 0 multiplicity 1
 C        -0.280762        -0.021260        -0.017245
 C         1.245873         0.041822         0.163091
 C         1.942515         0.989329         1.200777
 C         3.263403         0.491393         0.397089
 C         3.167623        -1.100044         0.448437
 C         3.280679        -1.160197        -1.232736
 C         2.460186         0.227919        -0.936549
 O         2.568229         1.290878        -1.910068
 O         1.719978        -1.303076         0.697232
 H        -0.658193        -0.064440         0.945645
 H        -0.632419         0.863774        -0.402325
 H        -0.585884        -0.940561        -0.647238
 H         2.114261         2.099917         1.269501
 H         1.983217         0.656814         2.239511
 H         4.145626         1.101965         0.465657
 H         3.639552        -1.674356         1.229117
 H         4.297852        -0.996575        -1.386840
 H         2.729067        -1.948085        -1.803344
 H         1.933763         1.006932        -2.590790
