19
Iteration:  3753charge 0 multiplicity 1
 C        -0.200086        -0.016113        -0.122542
 C         1.317715         0.002156         0.196319
 C         2.058291         1.062511         1.120980
 C         3.371141         0.444795         0.465154
 C         3.074682        -1.180932         0.399547
 C         3.177157        -1.060361        -1.093600
 C         2.455190         0.244484        -0.854695
 O         2.337881         1.221597        -1.802122
 O         1.777343        -1.265431         0.625472
 H        -0.808497        -0.178144         0.870868
 H        -0.372082         0.879240        -0.665022
 H        -0.406355        -0.811045        -0.874907
 H         1.784920         2.067752         0.820134
 H         1.940274         1.053767         2.134610
 H         4.308239         0.965957         0.353486
 H         3.694064        -1.992053         0.831921
 H         4.249130        -0.933279        -1.471746
 H         2.543235        -1.748022        -1.625628
 H         2.699520         0.974777        -2.681399
