19
Iteration:   219charge 0 multiplicity 1
 C        -0.146763         0.190968        -0.251319
 C         1.285747         0.012102         0.179236
 C         2.023610         0.932127         1.164380
 C         3.251494         0.361069         0.455697
 C         3.104941        -1.131180         0.454631
 C         3.140250        -1.127392        -1.097281
 C         2.490780         0.219909        -0.933334
 O         2.527818         1.229925        -1.901996
 O         1.708308        -1.321028         0.774481
 H        -1.078628         0.081197         0.454914
 H        -0.262053         1.250380        -0.684218
 H        -0.397985        -0.439936        -1.114429
 H         2.145052         1.983862         0.932545
 H         1.915873         0.593477         2.230293
 H         4.186224         0.782207         0.443380
 H         3.782301        -1.823796         1.055531
 H         4.115322        -1.121058        -1.599767
 H         2.492433        -1.807519        -1.645353
 H         2.054425         1.994438        -1.502352
