19
Iteration:  3171charge 0 multiplicity 1
 C        -0.124573         0.066321        -0.190768
 C         1.327411        -0.035940         0.209678
 C         2.067946         0.951184         1.242464
 C         3.311594         0.483364         0.450469
 C         3.083556        -1.157539         0.392053
 C         3.116617        -1.071125        -1.203921
 C         2.563343         0.309800        -0.871142
 O         2.413642         1.214894        -1.985803
 O         1.695819        -1.355872         0.771556
 H        -0.916550         0.056085         0.657645
 H        -0.141551         1.039744        -0.767644
 H        -0.413121        -0.612113        -0.895116
 H         1.795547         2.052956         1.194498
 H         1.967319         0.620050         2.384082
 H         4.245301         0.965637         0.687720
 H         3.704440        -1.943253         0.915475
 H         4.203734        -1.082313        -1.372811
 H         2.460753        -1.751470        -1.719099
 H         1.724097         1.885480        -1.814581
