19
Iteration:  4312
 C        -0.071477        -0.000272        -0.234771
 C         1.361492         0.020916         0.159605
 C         2.128104         0.926266         1.117890
 C         3.318380         0.483788         0.422355
 C         3.032445        -1.145927         0.473355
 C         3.236656        -1.184874        -1.126025
 C         2.527035         0.217298        -0.951581
 O         2.208616         1.360197        -1.716518
 O         1.714713        -1.226423         0.722646
 H        -0.747448        -0.221733         0.547387
 H        -0.352211         1.048079        -0.535354
 H        -0.121210        -0.868660        -0.950822
 H         1.846271         1.948158         0.849914
 H         1.939418         0.770399         2.247172
 H         4.296048         0.879403         0.321689
 H         3.647613        -1.870287         0.948666
 H         4.302877        -1.166742        -1.469194
 H         2.755475        -2.047015        -1.627418
 H         1.792450         1.125194        -2.558004
