19
Iteration:   538
 C        -0.149190         0.154426        -0.206725
 C         1.337320         0.147649         0.144108
 C         2.121524         0.972703         1.101253
 C         3.298279         0.251891         0.585106
 C         3.070650        -1.182058         0.370587
 C         3.239948        -1.196056        -1.102185
 C         2.540837         0.228412        -0.892952
 O         2.328858         1.286821        -1.791148
 O         1.675005        -1.245989         0.646875
 H        -0.810727         0.113840         0.645601
 H        -0.453374         1.006021        -0.695271
 H        -0.375554        -0.655352        -0.854694
 H         2.196362         2.096058         0.945571
 H         1.934752         0.991161         2.192660
 H         4.244024         0.638395         0.887805
 H         3.472058        -1.903278         1.041820
 H         4.346212        -0.876728        -1.474652
 H         2.615840        -2.023504        -1.659231
 H         1.784406         0.973248        -2.516968
