19
Iteration:  1673charge 0 multiplicity 1
 C        -0.049887         0.013936        -0.413064
 C         1.325314         0.031006         0.129524
 C         1.933135         0.931611         1.249559
 C         3.285974         0.478869         0.561920
 C         3.136372        -1.179072         0.488853
 C         3.288957        -1.070436        -1.136842
 C         2.578611         0.259749        -0.830740
 O         2.230904         1.227275        -1.782299
 O         1.668342        -1.256543         0.633343
 H        -0.987250        -0.334716         0.168118
 H        -0.349001         0.937234        -0.856734
 H         0.015308        -0.639113        -1.355305
 H         1.771109         1.966237         1.083534
 H         1.934255         0.646280         2.327429
 H         4.289951         0.880381         0.683800
 H         3.592494        -1.884880         1.181441
 H         4.231537        -1.058220        -1.541876
 H         2.632920        -1.783210        -1.560516
 H         3.017288         1.685671        -2.138927
