19
Iteration:  4754
 C        -0.155877        -0.022290        -0.165349
 C         1.361621         0.044375         0.199295
 C         2.043401         1.104494         1.076223
 C         3.273712         0.477404         0.485925
 C         3.140758        -1.219951         0.477025
 C         3.173776        -1.134334        -1.179020
 C         2.525409         0.193472        -0.905450
 O         2.338692         1.298458        -1.777109
 O         1.743484        -1.307082         0.692335
 H        -0.799053        -0.224960         0.717775
 H        -0.541248         0.994197        -0.525562
 H        -0.344370        -0.732467        -0.962972
 H         1.704520         2.084369         0.597457
 H         1.898752         1.081718         2.220722
 H         4.391730         0.598092         0.355003
 H         3.830887        -1.717590         1.169578
 H         4.137560        -0.844061        -1.690286
 H         2.568480        -1.929388        -1.537251
 H         2.014373         1.046107        -2.650647
