19
Iteration:  3314
 C         0.006802         0.137965        -0.321010
 C         1.356973         0.021947         0.165206
 C         2.039308         0.970287         1.128288
 C         3.344946         0.324194         0.548617
 C         3.131877        -1.233713         0.409941
 C         3.184293        -1.045997        -1.157802
 C         2.528114         0.248747        -0.863487
 O         2.110047         1.192475        -1.880448
 O         1.731192        -1.235768         0.807033
 H        -0.811738        -0.197201         0.525471
 H        -0.117251         1.131755        -0.905347
 H        -0.108129        -0.650210        -0.970877
 H         2.088539         2.036373         0.987747
 H         1.712566         0.593816         2.110995
 H         4.300040         0.880512         0.799736
 H         3.770161        -2.061137         0.657941
 H         4.197834        -0.853361        -1.457242
 H         2.579038        -1.806630        -1.698222
 H         2.340167         2.067634        -1.596549
