19
Iteration:  3332
 C        -0.118781         0.055590        -0.262335
 C         1.331951         0.020212         0.178825
 C         2.099869         0.952013         1.194654
 C         3.332434         0.416120         0.453336
 C         3.090694        -1.149452         0.400875
 C         3.236982        -1.141602        -1.155575
 C         2.512904         0.225429        -0.869138
 O         2.195015         1.242628        -1.821091
 O         1.698427        -1.260565         0.697555
 H        -0.684752         0.039047         0.642106
 H        -0.321173         0.961240        -0.853211
 H        -0.493840        -0.749020        -0.956704
 H         1.873180         1.987356         0.938939
 H         2.031860         0.849762         2.256388
 H         4.371123         0.731858         0.382898
 H         3.619387        -1.681847         1.272271
 H         4.294729        -0.869176        -1.406914
 H         2.863623        -1.898966        -1.823459
 H         2.834639         1.906452        -1.571141
