19
Iteration:    59charge 0 multiplicity 1
 C        -0.195741         0.135535        -0.306452
 C         1.327918         0.081399         0.156114
 C         2.076396         1.069827         1.190681
 C         3.322717         0.345679         0.527453
 C         3.124430        -1.300028         0.467672
 C         3.194155        -1.065465        -1.087400
 C         2.504261         0.258244        -0.850642
 O         2.434758         1.140416        -1.891735
 O         1.611801        -1.265124         0.658929
 H        -0.674827        -0.256618         0.572497
 H        -0.603522         1.054047        -0.601038
 H        -0.378791        -0.576378        -1.047294
 H         1.931445         2.061875         0.818867
 H         1.847389         0.972453         2.274138
 H         4.363588         0.557387         0.468031
 H         3.695272        -2.074835         1.089039
 H         4.319019        -0.784293        -1.347215
 H         2.813333        -1.758754        -1.960781
 H         2.217323         2.026388        -1.518836
