19
Iteration:  1241
 C        -0.125775         0.023911        -0.283404
 C         1.273937        -0.084998         0.179872
 C         1.896583         0.965013         1.095414
 C         3.248367         0.496081         0.518510
 C         3.110000        -1.124562         0.446422
 C         3.176320        -1.031172        -1.048318
 C         2.511981         0.287120        -0.820330
 O         2.448734         1.271192        -1.814115
 O         1.750023        -1.406936         0.630795
 H        -0.731077         0.057747         0.520515
 H        -0.075767         0.964548        -0.934727
 H        -0.257336        -0.764529        -0.967604
 H         1.570323         1.879476         0.677510
 H         1.694000         0.999840         2.192329
 H         4.216138         0.802769         0.806474
 H         3.698377        -1.768079         1.130106
 H         4.243205        -0.818957        -1.537643
 H         2.583551        -1.675512        -1.732956
 H         3.303554         1.645259        -2.081792
