19
Iteration:   955charge 0 multiplicity 1
 C        -0.142791         0.082940        -0.203699
 C         1.277766        -0.027516         0.071865
 C         1.880578         0.909840         1.069159
 C         3.227135         0.417643         0.500560
 C         3.120142        -1.117124         0.457183
 C         3.243102        -1.063495        -1.073966
 C         2.528216         0.273772        -0.868749
 O         2.577707         1.260721        -1.781314
 O         1.689749        -1.360141         0.684879
 H        -0.676421        -0.580584         0.498860
 H        -0.454258         1.195882        -0.379350
 H        -0.516600        -0.373822        -1.178973
 H         1.811521         1.956688         0.698335
 H         1.593290         0.999589         2.095579
 H         4.254407         0.945150         0.394651
 H         3.691134        -1.864390         0.966719
 H         4.307538        -0.836866        -1.239657
 H         2.911421        -1.760468        -1.757207
 H         1.723219         1.724141        -1.787554
