19
Iteration:  1531
 C        -0.107709        -0.013541        -0.437602
 C         1.259806         0.017957         0.210016
 C         1.908413         0.950652         1.274786
 C         3.265631         0.453722         0.620325
 C         3.133523        -1.139872         0.468096
 C         3.192858        -1.138560        -1.122654
 C         2.526049         0.284271        -0.885814
 O         2.357262         1.310559        -1.948253
 O         1.751332        -1.339771         0.709548
 H        -0.944792        -0.306940         0.280875
 H        -0.208164         0.969995        -0.656578
 H         0.075643        -0.545137        -1.403786
 H         1.817340         2.013706         1.065706
 H         1.892305         0.669196         2.332517
 H         4.234419         1.027050         0.824344
 H         3.825404        -1.669393         1.123192
 H         4.316511        -1.043853        -1.583668
 H         2.412528        -1.813728        -1.589409
 H         3.216393         1.721992        -1.906384
