19
Iteration:  2213
 C        -0.149520        -0.084102        -0.181003
 C         1.288238         0.057819         0.176620
 C         1.963819         0.969621         1.231781
 C         3.221465         0.384057         0.581927
 C         3.052148        -1.149816         0.394517
 C         3.271508        -0.973813        -1.138731
 C         2.606013         0.330722        -0.898802
 O         2.466044         1.257084        -1.865733
 O         1.678239        -1.285826         0.608230
 H        -0.813714        -0.186826         0.845390
 H        -0.708844         0.734886        -0.713696
 H        -0.287403        -0.898647        -0.783635
 H         1.794350         1.966593         0.787064
 H         1.614337         0.810011         2.268499
 H         4.202847         0.733915         0.971652
 H         3.571663        -1.890649         0.997652
 H         4.429646        -0.865668        -1.359536
 H         2.844374        -1.749033        -1.881924
 H         2.528908         0.932602        -2.812862
