19
Iteration:  4134
 C        -0.020268        -0.006197        -0.359939
 C         1.332744         0.054193         0.195474
 C         2.168538         1.013892         1.181121
 C         3.340026         0.415883         0.470982
 C         3.144544        -1.194883         0.453430
 C         3.150345        -1.110144        -1.158363
 C         2.483697         0.271976        -0.803040
 O         2.096188         1.261804        -1.798238
 O         1.711116        -1.282191         0.747948
 H        -0.830528        -0.305671         0.357176
 H        -0.321014         0.846390        -1.019180
 H         0.052340        -0.676131        -1.144407
 H         1.768636         2.019107         0.822854
 H         2.101384         0.881302         2.277931
 H         4.380898         0.820225         0.669309
 H         3.799146        -1.862599         1.085490
 H         4.179508        -0.824317        -1.438889
 H         2.522898        -1.705376        -1.862993
 H         2.749485         1.331316        -2.493795
