19
Iteration:  2697
 C        -0.197438        -0.011650        -0.191112
 C         1.300448        -0.014347         0.118223
 C         1.948656         0.944945         1.124011
 C         3.277156         0.425004         0.525752
 C         3.170664        -1.168160         0.482734
 C         3.275313        -1.147340        -1.137200
 C         2.497823         0.305739        -0.853443
 O         2.423591         1.336818        -1.820455
 O         1.742840        -1.295121         0.602042
 H        -0.773420         0.107248         0.865002
 H        -0.333211         0.865681        -0.717718
 H        -0.483997        -0.833801        -0.928792
 H         1.947900         2.045178         0.926638
 H         1.695335         0.866357         2.160653
 H         4.285111         0.931273         0.608096
 H         3.783312        -1.861281         1.059032
 H         4.199262        -0.934134        -1.704046
 H         2.755449        -1.984164        -1.706556
 H         1.523036         1.653485        -1.704239
