19
Iteration:  4489
 C        -0.091982        -0.006791        -0.253947
 C         1.332204         0.023037         0.284122
 C         2.085917         0.954131         1.180956
 C         3.266760         0.437416         0.488781
 C         3.156119        -1.167025         0.427046
 C         3.122911        -1.048359        -1.135607
 C         2.488190         0.286306        -0.844448
 O         2.355747         1.281666        -1.879832
 O         1.720503        -1.296964         0.664766
 H        -0.652376        -0.230976         0.644673
 H        -0.366338         0.934302        -0.727642
 H        -0.226254        -0.822669        -1.127154
 H         1.978782         1.967334         0.654771
 H         2.080676         1.016713         2.294479
 H         4.212818         0.975343         0.663840
 H         3.737176        -1.878290         1.131441
 H         4.134416        -1.013093        -1.593349
 H         2.462536        -1.719852        -1.742982
 H         1.626210         0.809583        -2.321839
