19
Iteration:  2615
 C        -0.113744         0.025456        -0.235399
 C         1.313691        -0.057634         0.194467
 C         1.965878         0.918579         1.215811
 C         3.255602         0.568463         0.497972
 C         3.184056        -1.143397         0.463576
 C         3.231654        -1.081251        -1.107861
 C         2.542304         0.243405        -0.867593
 O         2.329027         1.307197        -1.863692
 O         1.688111        -1.332532         0.611487
 H        -0.799948        -0.328366         0.422130
 H        -0.512172         1.111926        -0.566873
 H        -0.441775        -0.542710        -1.065680
 H         1.528952         1.910542         1.040124
 H         2.033226         0.548197         2.289403
 H         4.192800         1.099084         0.592111
 H         3.828945        -1.893724         1.029529
 H         4.188167        -1.196400        -1.557405
 H         2.528318        -1.685543        -1.522900
 H         3.149188         1.235399        -2.362349
