19
Iteration:  1990charge 0 multiplicity 1
 C        -0.024204         0.053379        -0.427682
 C         1.325484        -0.011266         0.138056
 C         1.917707         0.940501         1.272591
 C         3.234350         0.465287         0.502656
 C         3.140179        -1.124974         0.405880
 C         3.089712        -1.028131        -1.085057
 C         2.489586         0.291395        -0.803848
 O         2.328175         1.176437        -1.864166
 O         1.822829        -1.359940         0.729088
 H        -0.871156         0.087101         0.170444
 H        -0.086047         1.057925        -0.971909
 H        -0.320844        -0.769822        -1.235485
 H         1.793785         2.042232         1.197423
 H         1.747123         0.664733         2.323899
 H         4.162698         0.951488         0.700526
 H         3.852571        -1.904847         0.882211
 H         4.162392        -0.702595        -1.455602
 H         2.645758        -1.892273        -1.692158
 H         2.946704         1.893731        -1.593210
