19
Iteration:   878charge 0 multiplicity 1
 C        -0.124408         0.140292        -0.351017
 C         1.285907        -0.092202         0.271712
 C         1.904386         0.938641         1.157172
 C         3.228107         0.415777         0.494687
 C         3.125867        -1.153152         0.386277
 C         3.236183        -1.107060        -1.095317
 C         2.618532         0.302151        -0.922033
 O         2.422305         1.357081        -1.771822
 O         1.714315        -1.376458         0.720570
 H        -0.978792         0.380429         0.402778
 H        -0.012751         1.095873        -0.980563
 H        -0.447695        -0.841894        -0.875059
 H         1.538139         1.907041         0.690453
 H         1.706885         0.828762         2.243469
 H         4.307767         0.863026         0.735883
 H         3.789189        -1.656950         1.060336
 H         4.276762        -1.257882        -1.345456
 H         2.695320        -1.779960        -1.603439
 H         2.173897         0.973038        -2.604632
