19
Iteration:  3654
 C        -0.113470         0.108189        -0.264400
 C         1.367840         0.006935         0.137619
 C         2.067596         0.960437         1.114083
 C         3.352637         0.586003         0.445654
 C         3.147369        -1.168850         0.478258
 C         3.233491        -1.072825        -1.137226
 C         2.616343         0.250639        -0.906727
 O         2.221670         1.205058        -1.851661
 O         1.644174        -1.364030         0.764768
 H        -0.628398        -0.212972         0.690892
 H        -0.345352         1.109301        -0.479905
 H        -0.279487        -0.617401        -0.941811
 H         1.710693         1.967509         1.127672
 H         1.845964         0.549599         2.035188
 H         4.408345         0.885136         0.641283
 H         3.667544        -1.988033         1.032791
 H         4.289438        -1.196574        -1.447728
 H         2.695628        -1.861364        -1.652137
 H         1.249004         1.398136        -1.832305
