19
Iteration:   148
 C        -0.176500         0.106412        -0.237464
 C         1.250980         0.072416         0.175445
 C         2.116046         0.962760         1.215316
 C         3.319014         0.459177         0.493186
 C         3.014698        -1.212151         0.417319
 C         3.147674        -1.088283        -1.064771
 C         2.580852         0.298777        -0.878213
 O         2.484836         1.268152        -1.891131
 O         1.645318        -1.350316         0.693230
 H        -0.919313         0.028624         0.493185
 H        -0.265587         0.987263        -0.807420
 H        -0.321851        -0.693328        -0.973364
 H         1.886512         2.026438         1.013573
 H         1.878742         0.594522         2.210257
 H         4.389329         0.839828         0.712231
 H         3.643746        -1.861222         1.008108
 H         4.326570        -1.216234        -1.331656
 H         2.536888        -1.924216        -1.645674
 H         2.256231         0.883473        -2.764650
