19
Iteration:   699
 C        -0.132301         0.133397        -0.300693
 C         1.320199        -0.038293         0.166713
 C         2.027959         0.914386         1.219939
 C         3.352291         0.399116         0.510614
 C         3.128737        -1.143145         0.434809
 C         3.111992        -1.076008        -1.089212
 C         2.536629         0.343529        -0.849441
 O         2.422008         1.210624        -1.976738
 O         1.661770        -1.371487         0.715221
 H        -0.779805         0.271774         0.644475
 H        -0.092444         1.054715        -0.977139
 H        -0.602951        -0.643055        -0.902500
 H         1.875909         1.951680         0.960494
 H         1.741386         0.819981         2.246518
 H         4.321685         0.771249         0.716688
 H         3.694249        -1.780244         1.113412
 H         3.994778        -1.049725        -1.619573
 H         2.461711        -1.752004        -1.423155
 H         2.427768         2.057969        -1.500129
