19
Iteration:   503
 C        -0.133464         0.198771        -0.213801
 C         1.292107        -0.012956         0.145646
 C         2.038713         0.957609         1.069562
 C         3.286790         0.436045         0.401624
 C         3.065301        -1.192746         0.413234
 C         3.083512        -1.123550        -1.093875
 C         2.528280         0.200330        -0.902923
 O         2.476872         1.321195        -1.726515
 O         1.688032        -1.376634         0.772170
 H        -0.727687         0.253684         0.694930
 H        -0.055449         1.153185        -0.666140
 H        -0.518786        -0.460306        -0.895682
 H         1.836085         1.959352         0.705452
 H         2.124590         0.711552         2.152156
 H         4.142312         0.974089         0.559120
 H         3.849238        -1.793617         0.936128
 H         4.129771        -1.029023        -1.625123
 H         2.520802        -1.982931        -1.592589
 H         2.649400         1.070867        -2.628796
