19
Iteration:   928charge 0 multiplicity 1
 C        -0.200847        -0.036335        -0.218729
 C         1.301961         0.050299         0.127877
 C         1.951270         0.960102         1.143082
 C         3.274153         0.442516         0.658871
 C         3.099979        -1.157688         0.448704
 C         3.282876        -1.142186        -1.129419
 C         2.625735         0.334605        -0.866526
 O         2.526690         1.312341        -1.877079
 O         1.616865        -1.292930         0.599968
 H        -0.822285        -0.424836         0.597467
 H        -0.524202         0.833464        -0.691714
 H        -0.276886        -0.855137        -0.935246
 H         1.885061         2.005755         0.799272
 H         1.776783         0.889939         2.261491
 H         4.233079         0.942880         0.914033
 H         3.508314        -1.982184         1.113460
 H         4.285821        -1.078168        -1.659458
 H         2.598667        -1.940222        -1.751596
 H         1.552726         1.422480        -1.988667
