19
Iteration:  4962
 C        -0.086544         0.060652        -0.264165
 C         1.356599        -0.004073         0.205795
 C         2.089119         1.041449         1.094368
 C         3.366669         0.495055         0.559088
 C         3.077424        -1.180228         0.439196
 C         3.209524        -1.048483        -1.162663
 C         2.557533         0.247195        -0.844077
 O         2.183578         1.094864        -1.863632
 O         1.738129        -1.292699         0.666996
 H        -0.774684        -0.102357         0.609431
 H        -0.408568         0.988283        -0.820813
 H        -0.245895        -0.654746        -0.989726
 H         1.977576         2.049669         0.651613
 H         2.036166         1.103099         2.221961
 H         4.329037         1.054098         0.783003
 H         3.588517        -1.944145         1.068333
 H         4.273397        -0.939693        -1.582137
 H         2.648310        -1.848228        -1.555058
 H         1.512083         1.646812        -1.380632
