19
Iteration:  3479charge 0 multiplicity 1
 C        -0.036629         0.044866        -0.338340
 C         1.371169         0.019758         0.230374
 C         2.079881         1.043963         1.198035
 C         3.348619         0.458477         0.488761
 C         3.129894        -1.179121         0.422302
 C         3.208048        -1.076426        -1.071378
 C         2.463451         0.229827        -0.862571
 O         2.246349         1.212443        -1.773362
 O         1.679140        -1.293884         0.630473
 H        -0.920985        -0.171793         0.424442
 H        -0.241163         1.010834        -0.774169
 H        -0.027866        -0.703680        -1.144289
 H         1.876930         2.033242         0.867681
 H         1.981406         0.866434         2.247556
 H         4.333345         0.939159         0.239942
 H         3.809195        -1.924688         0.773209
 H         4.222206        -1.001364        -1.447559
 H         2.642544        -1.912678        -1.565895
 H         1.270484         1.206525        -1.940422
