19
Iteration:  1992
 C        -0.025462         0.024568        -0.437374
 C         1.318061         0.004533         0.136790
 C         1.928804         0.921771         1.258087
 C         3.234454         0.467767         0.497158
 C         3.141101        -1.115434         0.423702
 C         3.113189        -1.024023        -1.091845
 C         2.496230         0.297915        -0.800488
 O         2.317974         1.179431        -1.865962
 O         1.799333        -1.375393         0.732982
 H        -0.887249         0.153188         0.291502
 H        -0.078460         1.075529        -0.960581
 H        -0.251525        -0.650484        -1.178950
 H         1.874241         2.080057         1.153827
 H         1.736832         0.735253         2.330365
 H         4.210696         0.934550         0.694376
 H         3.805249        -1.902914         0.870585
 H         4.183635        -0.739504        -1.484056
 H         2.662455        -1.878601        -1.694487
 H         2.912041         1.926740        -1.532367
