19
Iteration:  1758charge 0 multiplicity 1
 C        -0.215268        -0.100782        -0.243307
 C         1.290851         0.061701         0.143746
 C         1.921246         0.908658         1.243490
 C         3.305345         0.439465         0.628656
 C         3.080991        -1.128240         0.481112
 C         3.172765        -0.968920        -1.139486
 C         2.580319         0.365248        -0.827551
 O         2.470167         1.186858        -1.954014
 O         1.670275        -1.284277         0.551343
 H        -0.712177        -0.233681         0.630765
 H        -0.517449         0.687948        -0.779822
 H        -0.149800        -1.042265        -0.943436
 H         1.893325         2.004425         1.203000
 H         1.749121         0.649157         2.316492
 H         4.310742         0.818337         0.953392
 H         3.595727        -1.745772         1.210370
 H         4.290276        -0.726767        -1.194118
 H         2.844098        -1.691712        -1.950019
 H         3.332482         1.449520        -2.257830
