19
Iteration:  3855
 C        -0.232242        -0.010987        -0.030310
 C         1.340010         0.012790         0.071939
 C         2.064218         0.961777         1.103362
 C         3.309238         0.394268         0.446778
 C         3.115785        -1.125894         0.427552
 C         3.238721        -1.093063        -1.202547
 C         2.560131         0.275449        -0.914175
 O         2.333717         1.273998        -1.837980
 O         1.650740        -1.215135         0.768748
 H        -0.562636        -0.257381         0.929452
 H        -0.840912         0.807398        -0.521527
 H        -0.447210        -0.906673        -0.786792
 H         1.991384         2.017129         0.802136
 H         1.781394         0.712249         2.159631
 H         4.333580         0.843057         0.420739
 H         3.675543        -1.921244         0.890598
 H         4.347798        -0.897877        -1.373203
 H         2.684151        -2.003266        -1.554887
 H         3.055716         1.234907        -2.493662
