19
Iteration:  3719charge 0 multiplicity 1
 C        -0.193789        -0.055862         0.041686
 C         1.295333        -0.040720         0.131364
 C         1.928475         0.950668         1.100585
 C         3.278468         0.475329         0.415657
 C         3.078839        -1.128894         0.457981
 C         3.175096        -1.120225        -1.166227
 C         2.497915         0.239873        -1.018504
 O         2.563202         1.385535        -1.886007
 O         1.763349        -1.253529         0.748945
 H        -0.751051        -0.123721         1.099975
 H        -0.507134         0.943851        -0.308891
 H        -0.600360        -0.795797        -0.591819
 H         1.642330         1.944437         0.887987
 H         1.784219         0.631447         2.067414
 H         4.263199         0.953327         0.591124
 H         3.698352        -1.880057         0.992111
 H         4.199439        -1.301038        -1.522328
 H         2.559639        -1.883372        -1.593877
 H         2.298124         1.100357        -2.786800
