19
Iteration:  3632
 C        -0.042508         0.128193        -0.378703
 C         1.314670         0.007000         0.206715
 C         2.064897         0.949663         1.213323
 C         3.267908         0.399758         0.457502
 C         3.254459        -1.081599         0.389564
 C         3.166084        -1.128476        -1.096350
 C         2.448051         0.199007        -0.842660
 O         2.224211         1.228790        -1.857851
 O         1.770141        -1.305046         0.755809
 H        -0.916900        -0.000441         0.314565
 H        -0.054886         1.136931        -0.665990
 H        -0.159525        -0.463225        -1.206446
 H         1.796700         1.971206         1.034976
 H         2.043769         0.804888         2.248426
 H         4.246937         0.931452         0.416912
 H         3.770264        -1.794107         1.050789
 H         4.186971        -0.902787        -1.465864
 H         2.731846        -2.025503        -1.551246
 H         1.290668         1.409181        -1.740403
