19
Iteration:  1206charge 0 multiplicity 1
 C        -0.121148        -0.018581        -0.419762
 C         1.300587         0.060069         0.081779
 C         1.994385         0.835786         1.169690
 C         3.303467         0.414355         0.540318
 C         3.104537        -1.120456         0.490405
 C         3.236858        -1.126506        -0.994417
 C         2.546212         0.311820        -0.835117
 O         2.271124         1.258259        -1.816830
 O         1.724817        -1.178512         0.669464
 H        -0.868559        -0.389522         0.204173
 H        -0.537864         0.895781        -0.723949
 H        -0.173814        -0.693358        -1.213429
 H         1.844515         1.949176         1.125765
 H         1.702069         0.358907         2.111790
 H         4.399711         0.700816         0.673644
 H         3.689089        -1.789553         1.153350
 H         4.270801        -0.814337        -1.430840
 H         2.734311        -1.871579        -1.686202
 H         3.145197         1.639837        -2.054191
