19
Iteration:  3922charge 0 multiplicity 1
 C        -0.155492         0.113342        -0.145795
 C         1.286826         0.017523         0.144482
 C         1.981742         0.915506         1.199588
 C         3.307622         0.479762         0.457086
 C         3.181569        -1.185133         0.395108
 C         3.242430        -1.103555        -1.219746
 C         2.523280         0.213691        -0.926602
 O         2.247108         1.220237        -1.858201
 O         1.725894        -1.243638         0.790196
 H        -0.583611        -0.081502         0.789186
 H        -0.242517         1.102183        -0.646107
 H        -0.387917        -0.579660        -1.030597
 H         1.742815         1.966374         1.118627
 H         1.962079         0.698428         2.316632
 H         4.265856         1.054477         0.462344
 H         3.666112        -1.905190         1.051520
 H         4.340708        -0.967583        -1.459134
 H         2.756628        -1.994075        -1.733069
 H         3.012756         1.202212        -2.434510
