19
Iteration:   626
 C        -0.088481         0.103192        -0.137167
 C         1.331834        -0.007725         0.177842
 C         2.017773         1.048861         1.100277
 C         3.328184         0.386614         0.540781
 C         3.085269        -1.216761         0.401090
 C         3.206256        -1.174833        -1.113149
 C         2.610966         0.232788        -0.895073
 O         2.330903         1.308611        -1.820485
 O         1.554377        -1.272162         0.643172
 H        -0.564646        -0.357450         0.744300
 H        -0.226740         1.108101        -0.334402
 H        -0.439514        -0.469291        -0.984750
 H         1.856559         2.139303         0.693720
 H         1.702061         1.127463         2.180911
 H         4.416226         0.654011         0.487168
 H         3.571704        -1.988624         0.976211
 H         4.369634        -1.187117        -1.450450
 H         2.588218        -1.901677        -1.847013
 H         3.176330         1.362264        -2.327180
