19
Iteration:   125
 C        -0.098609         0.164483        -0.217853
 C         1.266669        -0.036993         0.247006
 C         1.927758         0.978822         1.235158
 C         3.269876         0.402852         0.481927
 C         3.157861        -1.106496         0.398315
 C         3.088682        -1.115914        -1.154390
 C         2.428130         0.161495        -0.873283
 O         2.650686         1.224691        -1.896130
 O         1.673386        -1.270428         0.701083
 H        -0.837219         0.124672         0.553442
 H        -0.083598         1.075664        -0.734794
 H        -0.323023        -0.604108        -0.932786
 H         1.640773         1.962642         0.927667
 H         1.788782         0.710911         2.296929
 H         4.304022         0.775068         0.657875
 H         3.777114        -1.834288         0.990361
 H         4.129311        -0.760599        -1.581992
 H         2.594269        -1.944037        -1.805052
 H         1.873630         1.378664        -2.455431
