19
Iteration:  1311charge 0 multiplicity 1
 C        -0.179002         0.079505        -0.374115
 C         1.300454        -0.027224         0.159387
 C         1.942491         0.946739         1.201109
 C         3.267935         0.428931         0.609545
 C         3.145500        -1.152757         0.524163
 C         3.222507        -0.993562        -1.101525
 C         2.524497         0.301185        -0.862271
 O         2.343558         1.238938        -1.904753
 O         1.759299        -1.380641         0.657888
 H        -0.781771        -0.064466         0.639170
 H        -0.345892         1.003546        -0.897483
 H        -0.446816        -0.687932        -1.234423
 H         1.758066         2.009251         0.892616
 H         1.692489         0.797629         2.235344
 H         4.269140         0.757010         1.001765
 H         3.818469        -1.841933         1.032436
 H         4.205611        -0.871794        -1.548848
 H         2.807477        -1.849953        -1.657925
 H         3.205969         1.553024        -2.193576
