19
Iteration:  2275
 C        -0.227735         0.023888        -0.245078
 C         1.304924        -0.056404         0.140317
 C         1.867534         0.945826         1.126476
 C         3.261386         0.461954         0.532997
 C         3.196993        -1.206013         0.464565
 C         3.261739        -1.089153        -1.121944
 C         2.543263         0.294949        -0.869745
 O         2.499503         1.344241        -1.805215
 O         1.755320        -1.329655         0.664764
 H        -0.802261        -0.326896         0.537631
 H        -0.565786         1.155321        -0.362304
 H        -0.422351        -0.509744        -1.244435
 H         1.729726         2.013374         0.781651
 H         1.427401         0.939121         2.109718
 H         4.301283         0.906513         0.584836
 H         3.752816        -1.866151         1.091940
 H         4.224315        -1.031865        -1.568652
 H         2.716265        -1.898934        -1.564970
 H         1.603088         1.418588        -2.251821
