19
Iteration:   927charge 0 multiplicity 1
 C        -0.214338        -0.041475        -0.224330
 C         1.301210         0.060431         0.130846
 C         1.951065         0.949599         1.151541
 C         3.281619         0.446849         0.656417
 C         3.106249        -1.144830         0.449915
 C         3.284064        -1.145897        -1.132708
 C         2.625161         0.331861        -0.866107
 O         2.527419         1.305883        -1.871738
 O         1.616084        -1.287146         0.595703
 H        -0.838022        -0.391618         0.583156
 H        -0.571513         0.859593        -0.723407
 H        -0.229711        -0.869576        -0.914189
 H         1.935544         1.997175         0.789038
 H         1.778276         0.875781         2.312706
 H         4.197899         0.921228         0.877983
 H         3.511268        -1.991165         1.080967
 H         4.286329        -1.100622        -1.641072
 H         2.612515        -1.929956        -1.761301
 H         1.536484         1.391559        -1.982353
