19
Iteration:   932charge 0 multiplicity 1
 C        -0.141339        -0.035870        -0.197584
 C         1.299291         0.005146         0.116475
 C         1.952113         1.002849         1.113851
 C         3.255914         0.425478         0.654095
 C         3.076062        -1.211230         0.449576
 C         3.265645        -1.123838        -1.120318
 C         2.626104         0.332763        -0.867523
 O         2.525466         1.333798        -1.892151
 O         1.629287        -1.310426         0.613258
 H        -0.734245        -0.467908         0.655466
 H        -0.465503         0.937649        -0.629558
 H        -0.427072        -0.783197        -1.022795
 H         1.703092         2.043577         0.839961
 H         1.717243         0.921731         2.119680
 H         4.265199         0.935296         0.999779
 H         3.514450        -1.881545         1.175363
 H         4.225370        -0.998089        -1.630523
 H         2.655758        -1.844941        -1.606136
 H         1.600992         1.555979        -2.031761
