19
Iteration:  1255
 C        -0.174791         0.016897        -0.268142
 C         1.267837        -0.093265         0.118153
 C         1.920004         0.913845         1.050264
 C         3.252092         0.383619         0.586050
 C         3.161117        -1.164734         0.472372
 C         3.271672        -0.980064        -1.087208
 C         2.569490         0.311712        -0.870533
 O         2.394364         1.311154        -1.805800
 O         1.690394        -1.310730         0.679746
 H        -0.893964         0.138429         0.620239
 H        -0.442440         0.960633        -0.873971
 H        -0.738236        -0.859395        -0.774024
 H         1.925191         1.857311         0.538622
 H         1.601926         0.999187         2.094091
 H         4.114518         0.995056         0.613026
 H         3.767258        -1.945231         0.890250
 H         4.357199        -0.860665        -1.199052
 H         2.954933        -1.861811        -1.631491
 H         3.310800         1.446165        -2.075257
