19
Iteration:  4061charge 0 multiplicity 1
 C        -0.259442         0.032860         0.011638
 C         1.275427         0.008190         0.202871
 C         2.008708         0.947593         1.094011
 C         3.263088         0.466218         0.453159
 C         3.153481        -1.178215         0.449038
 C         3.311451        -1.095384        -1.156825
 C         2.587084         0.251982        -0.928126
 O         2.340635         1.282577        -1.950982
 O         1.688213        -1.312969         0.682774
 H        -0.663587        -0.130721         0.979472
 H        -0.766186         0.915259        -0.504461
 H        -0.681849        -0.761321        -0.763031
 H         1.899064         2.025376         0.820572
 H         1.836448         0.921307         2.212143
 H         4.277853         0.812956         0.758613
 H         3.551592        -1.845438         1.198806
 H         4.377573        -0.723793        -1.490813
 H         3.017328        -1.930350        -1.778907
 H         3.133991         1.536542        -2.460734
