19
Iteration:  1824charge 0 multiplicity 1
 C        -0.090705         0.060063        -0.404798
 C         1.350557        -0.013429         0.111174
 C         1.965126         1.043660         1.103474
 C         3.269330         0.414882         0.547970
 C         3.164648        -1.206638         0.529142
 C         3.350445        -1.179670        -1.115945
 C         2.619947         0.211257        -0.816063
 O         2.136834         1.319828        -1.680713
 O         1.647883        -1.315407         0.630424
 H        -0.811737         0.061349         0.292631
 H        -0.067354         0.982919        -0.772942
 H        -0.399275        -0.709471        -1.211020
 H         1.756288         2.030352         0.755300
 H         1.678960         1.007934         2.195699
 H         4.235360         0.931908         0.658802
 H         3.745462        -1.875711         1.161831
 H         4.475728        -0.911814        -1.453125
 H         2.885238        -1.813256        -1.963732
 H         2.908415         1.791801        -2.115507
