19
Iteration:  4504
 C        -0.173583         0.019392        -0.081827
 C         1.313305        -0.028151         0.134556
 C         1.974249         1.064378         1.142239
 C         3.341095         0.429460         0.574066
 C         3.123912        -1.138516         0.394701
 C         3.167067        -1.076330        -1.164418
 C         2.576525         0.276254        -0.887076
 O         2.380877         1.279068        -1.873154
 O         1.743949        -1.341585         0.676758
 H        -0.845781        -0.174870         0.801372
 H        -0.368045         0.998901        -0.566346
 H        -0.438143        -0.767096        -0.812628
 H         1.840349         2.093924         0.810206
 H         1.641515         0.896532         2.161028
 H         4.420613         0.651656         0.731380
 H         3.753300        -1.820900         0.827976
 H         4.178052        -1.036262        -1.680907
 H         2.705759        -1.950360        -1.683867
 H         1.776377         1.088792        -2.595320
