19
Iteration:  1777charge 0 multiplicity 1
 C        -0.126026         0.010271        -0.322185
 C         1.300917        -0.046764         0.187466
 C         1.884677         0.933632         1.238097
 C         3.185510         0.476958         0.568294
 C         3.137355        -1.168716         0.395320
 C         3.268784        -0.988432        -1.124649
 C         2.550709         0.307034        -0.853948
 O         2.443057         1.266705        -1.886450
 O         1.692084        -1.329481         0.677587
 H        -0.928346        -0.088825         0.464380
 H        -0.362583         0.995051        -0.861454
 H        -0.325254        -0.937219        -0.809487
 H         1.726799         2.063960         1.104200
 H         1.744001         0.700792         2.266097
 H         4.204622         0.967462         0.741938
 H         3.565367        -1.964674         1.005305
 H         4.392892        -1.070251        -1.510927
 H         2.660919        -1.832505        -1.587714
 H         3.259435         1.418812        -2.337377
