19
Iteration:  1167
 C        -0.127726         0.072791        -0.342058
 C         1.299799         0.001737         0.185035
 C         1.864602         1.048735         1.099591
 C         3.255881         0.458732         0.597258
 C         3.130963        -1.204519         0.401433
 C         3.282956        -1.095130        -1.145073
 C         2.578251         0.252332        -0.749457
 O         2.303618         1.220466        -1.728332
 O         1.755932        -1.317337         0.603496
 H        -0.881210        -0.441573         0.332867
 H        -0.206383         1.229784        -0.573695
 H        -0.039212        -0.309414        -1.416076
 H         1.668616         1.976880         0.631227
 H         1.638643         1.096923         2.187786
 H         4.194902         0.856588         0.773098
 H         3.650217        -1.856953         1.118266
 H         4.304290        -0.986231        -1.374860
 H         2.905610        -1.954346        -1.595661
 H         2.915638         1.054712        -2.445301
