19
Iteration:  1636
 C        -0.156589         0.020706        -0.370628
 C         1.282237         0.019108         0.152882
 C         1.952746         0.890052         1.253059
 C         3.284488         0.373025         0.621583
 C         3.163702        -1.165484         0.458552
 C         3.286138        -1.055339        -1.099930
 C         2.506931         0.382566        -0.841735
 O         2.318561         1.285796        -1.882577
 O         1.711085        -1.280040         0.658027
 H        -0.899498        -0.112134         0.312804
 H        -0.172302         0.914186        -1.064998
 H        -0.066347        -0.978205        -0.986097
 H         1.840716         2.035682         1.070171
 H         1.550835         0.680841         2.245116
 H         4.220445         0.991357         0.796539
 H         3.623898        -1.972158         1.058729
 H         4.248054        -0.866367        -1.550379
 H         2.824947        -1.828666        -1.741495
 H         3.038842         1.007436        -2.433937
