19
Iteration:  1074
 C        -0.150655         0.070506        -0.258367
 C         1.328250        -0.024241         0.127272
 C         1.873282         0.944351         1.125264
 C         3.200038         0.460080         0.504635
 C         3.125049        -1.191189         0.431593
 C         3.311820        -1.159305        -1.119815
 C         2.606422         0.309704        -0.903158
 O         2.439447         1.311532        -1.834620
 O         1.663046        -1.344152         0.715020
 H        -0.785994         0.145235         0.628874
 H        -0.378917         0.786118        -1.053856
 H        -0.328243        -0.906697        -0.735246
 H         1.569053         2.011401         0.829177
 H         1.763416         0.854339         2.179060
 H         4.132343         1.104780         0.925335
 H         3.708422        -1.870487         1.014640
 H         4.420007        -1.145397        -1.547440
 H         2.685318        -1.971479        -1.728986
 H         2.571093         2.125451        -1.297055
