19
Iteration:  3594charge 0 multiplicity 1
 C        -0.103750        -0.053655        -0.153932
 C         1.315528        -0.038411         0.203163
 C         2.045482         1.009598         1.121613
 C         3.226014         0.432591         0.467883
 C         3.094561        -1.127309         0.400251
 C         3.156293        -1.070000        -1.133499
 C         2.630617         0.346317        -0.897357
 O         2.401173         1.268545        -1.861168
 O         1.692314        -1.268803         0.716338
 H        -0.614363        -0.279035         0.774447
 H        -0.489838         1.000308        -0.500911
 H        -0.538892        -0.814646        -0.971606
 H         1.916166         2.102695         0.900155
 H         1.927828         0.732089         2.227669
 H         4.270372         0.716928         0.503308
 H         3.842479        -1.833961         0.761658
 H         4.198058        -1.116923        -1.457562
 H         2.611189        -1.912498        -1.591265
 H         1.535900         0.961414        -2.230812
