19
Iteration:  2126
 C        -0.137179         0.028627        -0.301389
 C         1.326197         0.018985         0.171092
 C         2.013474         1.058562         1.125730
 C         3.318504         0.351283         0.541576
 C         3.125125        -1.187103         0.463826
 C         3.301953        -1.086896        -1.101753
 C         2.591680         0.290290        -0.868092
 O         2.227929         1.249815        -1.813177
 O         1.658611        -1.349075         0.618107
 H        -0.818257        -0.266484         0.625046
 H        -0.249467         1.018938        -0.672647
 H        -0.308112        -0.679703        -0.970813
 H         1.853768         2.094122         0.695407
 H         1.562046         0.894130         2.150897
 H         4.330737         0.729606         0.823693
 H         3.558690        -1.744196         1.263928
 H         4.403515        -0.899636        -1.425403
 H         2.761800        -1.815821        -1.781360
 H         2.763697         2.099374        -1.768680
