19
Iteration:  3268
 C        -0.138312         0.087062        -0.202565
 C         1.294717         0.109852         0.209646
 C         2.042069         0.874513         1.245645
 C         3.295153         0.448016         0.388413
 C         3.165795        -1.135220         0.400843
 C         3.162105        -1.144570        -1.126378
 C         2.454862         0.262969        -0.885252
 O         2.423714         1.182572        -1.878779
 O         1.715930        -1.271279         0.686733
 H        -0.849081        -0.399962         0.587432
 H        -0.454261         1.175347        -0.395579
 H        -0.229094        -0.530363        -1.093284
 H         1.871592         1.890544         1.181205
 H         1.915235         0.481403         2.217305
 H         4.279960         0.873343         0.148195
 H         3.773638        -1.698789         1.193861
 H         4.192747        -0.876567        -1.437285
 H         2.666912        -1.917595        -1.663490
 H         1.811459         1.921398        -1.838710
