19
Iteration:  1192
 C        -0.088354        -0.008392        -0.429728
 C         1.331867         0.006443         0.112937
 C         2.035117         0.999583         1.161819
 C         3.325950         0.407966         0.569988
 C         3.069028        -1.162006         0.536302
 C         3.257810        -0.998352        -1.080239
 C         2.556119         0.280599        -0.841222
 O         2.239149         1.279448        -1.829874
 O         1.624167        -1.360742         0.681043
 H        -0.674709        -0.554693         0.387269
 H        -0.361871         0.955699        -0.646252
 H        -0.064504        -0.529295        -1.412375
 H         1.860763         2.122329         0.947340
 H         1.860014         0.811028         2.232978
 H         4.375986         0.847962         0.725309
 H         3.591112        -1.837136         1.195207
 H         4.297639        -0.900901        -1.213288
 H         2.920326        -1.877540        -1.640840
 H         3.044536         1.486957        -2.355776
