19
Iteration:  2973charge 0 multiplicity 1
 C        -0.073894        -0.029966        -0.411070
 C         1.273890         0.015673         0.233231
 C         2.114045         0.934996         1.184247
 C         3.332910         0.415591         0.500286
 C         3.172806        -1.188815         0.382721
 C         3.122549        -1.059686        -1.091728
 C         2.559487         0.313355        -0.863783
 O         2.247249         1.244369        -1.858791
 O         1.701864        -1.261771         0.761352
 H        -0.930710        -0.116888         0.426492
 H        -0.267088         0.985787        -0.777628
 H        -0.057634        -0.603572        -1.319621
 H         1.841641         2.015769         0.963229
 H         2.022165         0.635238         2.312865
 H         4.295997         0.755637         0.586337
 H         3.763177        -1.868911         0.978358
 H         4.143414        -1.021581        -1.482062
 H         2.687292        -1.791591        -1.759820
 H         1.819282         2.006198        -1.380957
