19
Iteration:  1559charge 0 multiplicity 1
 C        -0.172826        -0.061031        -0.295851
 C         1.305746         0.072308         0.099388
 C         1.902945         0.945954         1.178459
 C         3.310786         0.448546         0.562176
 C         3.120347        -1.181805         0.444917
 C         3.280878        -0.971960        -1.095336
 C         2.563338         0.273742        -0.797893
 O         2.400490         1.176317        -1.847981
 O         1.616820        -1.299140         0.616109
 H        -0.567531        -0.315041         0.623687
 H        -0.477608         1.026087        -0.634138
 H        -0.222165        -0.971616        -1.016003
 H         1.804084         2.064408         0.939929
 H         1.775465         0.790478         2.246135
 H         4.262346         1.013244         0.479581
 H         3.732965        -1.858853         1.092489
 H         4.239576        -0.750673        -1.342822
 H         2.760565        -1.576083        -1.821506
 H         3.198277         1.762705        -1.816123
