19
Iteration:  2123
 C        -0.162284         0.007347        -0.281804
 C         1.326192         0.045239         0.169849
 C         1.986911         1.061261         1.164502
 C         3.316336         0.364728         0.544989
 C         3.146395        -1.203383         0.454610
 C         3.308327        -1.094604        -1.094852
 C         2.587361         0.270890        -0.878701
 O         2.259123         1.251951        -1.823356
 O         1.643965        -1.336235         0.613367
 H        -0.710470        -0.248033         0.621020
 H        -0.370483         1.116195        -0.687853
 H        -0.352688        -0.771657        -1.051928
 H         1.882487         2.083066         0.717548
 H         1.643925         0.868984         2.152945
 H         4.324130         0.758086         0.851669
 H         3.654515        -1.758737         1.205547
 H         4.357079        -0.851144        -1.534705
 H         2.753135        -1.814365        -1.781447
 H         2.777766         2.075591        -1.883192
