19
Iteration:  1208charge 0 multiplicity 1
 C        -0.119251        -0.020130        -0.415091
 C         1.285232         0.059410         0.080087
 C         1.977771         0.844279         1.198150
 C         3.302949         0.417505         0.534622
 C         3.126297        -1.114633         0.473771
 C         3.236368        -1.137216        -0.992574
 C         2.543553         0.297155        -0.852663
 O         2.283827         1.253636        -1.809419
 O         1.726414        -1.169344         0.668985
 H        -0.818431        -0.399632         0.248160
 H        -0.558786         0.988090        -0.805359
 H        -0.201386        -0.716893        -1.221281
 H         1.852143         1.889749         1.133297
 H         1.709480         0.369255         2.151818
 H         4.302426         0.737684         0.691305
 H         3.678612        -1.818901         1.141643
 H         4.295066        -0.869834        -1.466608
 H         2.717604        -1.847344        -1.673927
 H         3.144490         1.702418        -2.070386
