19
Iteration:  3256
 C        -0.232106         0.078156        -0.097391
 C         1.293493         0.012222         0.117822
 C         2.028698         0.918618         1.228716
 C         3.306925         0.376611         0.418570
 C         3.105016        -1.148986         0.431302
 C         3.223815        -1.127568        -1.150834
 C         2.473629         0.254988        -0.918671
 O         2.489775         1.265866        -1.954317
 O         1.735762        -1.220515         0.732725
 H        -0.705681        -0.376586         0.800676
 H        -0.743949         1.067814        -0.280763
 H        -0.511384        -0.552877        -1.025856
 H         1.905654         1.944849         1.130511
 H         1.819438         0.621525         2.193143
 H         4.245864         0.827610         0.673060
 H         3.743393        -1.973429         0.925377
 H         4.255428        -0.960281        -1.540464
 H         2.872447        -1.950566        -1.729805
 H         1.651057         1.794072        -1.767257
