19
Iteration:  2418
 C        -0.188470        -0.098102        -0.114648
 C         1.278352         0.000123         0.130395
 C         1.892211         0.982812         1.262192
 C         3.173608         0.444878         0.590324
 C         3.202646        -1.105669         0.406262
 C         3.205693        -1.008013        -1.158863
 C         2.534028         0.248249        -0.899075
 O         2.639327         1.289081        -1.942737
 O         1.661776        -1.284634         0.579578
 H        -0.472693        -0.344364         0.775450
 H        -0.753653         0.889179        -0.363531
 H        -0.445021        -0.888028        -0.759457
 H         1.632994         2.042085         1.043513
 H         1.584435         0.746698         2.310528
 H         4.191505         0.847583         0.855213
 H         3.801795        -1.800651         1.071409
 H         4.232587        -0.759412        -1.450960
 H         2.887812        -1.939740        -1.517213
 H         1.881321         1.103644        -2.568347
