19
Iteration:  2899charge 0 multiplicity 1
 C        -0.248801         0.056848         0.021978
 C         1.229629        -0.107845         0.121102
 C         1.884177         0.976006         1.090871
 C         3.179356         0.435332         0.452782
 C         3.213673        -1.086913         0.350768
 C         3.305570        -1.090409        -1.167674
 C         2.492344         0.219912        -0.914866
 O         2.571152         1.247916        -1.846957
 O         1.741852        -1.317654         0.645046
 H        -0.838866        -0.112095         1.074272
 H        -0.339751         1.227754        -0.180657
 H        -0.741155        -0.488669        -0.772751
 H         1.842979         2.022777         0.887862
 H         1.618760         0.647179         2.102152
 H         4.100606         0.991189         0.597737
 H         3.688954        -1.842369         0.970077
 H         4.387856        -0.758882        -1.486811
 H         2.895219        -1.936193        -1.769830
 H         2.239489         2.054899        -1.467457
