19
Iteration:  3394charge 0 multiplicity 1
 C        -0.266952        -0.071261        -0.026219
 C         1.260166         0.037750         0.148133
 C         1.995837         0.957024         1.164398
 C         3.321558         0.453481         0.502002
 C         3.080761        -1.214429         0.370410
 C         3.241388        -1.072542        -1.163632
 C         2.584913         0.311137        -0.865770
 O         2.520780         1.333864        -1.958714
 O         1.651614        -1.292181         0.707098
 H        -0.664021        -0.163300         1.001352
 H        -0.670208         0.870772        -0.290144
 H        -0.624614        -0.964206        -0.711041
 H         1.656783         2.025222         0.822791
 H         1.914183         0.843909         2.294940
 H         4.220725         0.969937         0.755353
 H         3.771432        -1.802178         0.938137
 H         4.267077        -0.796471        -1.469746
 H         2.801901        -1.803134        -1.880514
 H         2.485684         0.877503        -2.795197
