19
Iteration:   870charge 0 multiplicity 1
 C        -0.160636         0.131343        -0.318430
 C         1.246554        -0.112602         0.190878
 C         1.888018         0.995001         1.087878
 C         3.238042         0.419619         0.548499
 C         3.123598        -1.156828         0.415724
 C         3.239491        -1.131742        -1.108177
 C         2.655616         0.340156        -0.854740
 O         2.380067         1.335839        -1.751334
 O         1.793137        -1.388902         0.710412
 H        -0.876444         0.458037         0.385748
 H         0.010687         1.099747        -0.945049
 H        -0.524560        -0.543656        -1.083935
 H         1.617507         2.049852         0.733659
 H         1.696731         0.918112         2.276047
 H         4.229242         0.591061         0.749305
 H         3.764604        -1.816405         0.989278
 H         4.255663        -1.242950        -1.565101
 H         2.488655        -1.859591        -1.614857
 H         2.328930         0.909351        -2.605416
