19
Iteration:  2790charge 0 multiplicity 1
 C        -0.081139         0.048949        -0.256961
 C         1.354476         0.010836         0.108142
 C         2.003185         0.962934         1.099168
 C         3.301159         0.412956         0.502941
 C         3.127118        -1.168576         0.416006
 C         3.248318        -1.091526        -1.082330
 C         2.507789         0.238560        -0.886535
 O         2.234068         1.294009        -1.830895
 O         1.726553        -1.353034         0.738809
 H        -0.658667        -0.218217         0.506486
 H        -0.303295         1.168903        -0.537555
 H        -0.270610        -0.424202        -1.163115
 H         1.749768         1.994036         0.858405
 H         1.709815         0.820774         2.161546
 H         4.256829         0.891559         0.575771
 H         3.651791        -1.983301         0.880719
 H         4.337000        -0.977953        -1.439047
 H         2.757151        -1.897390        -1.670947
 H         2.392284         2.127825        -1.311150
