19
Iteration:   210
 C        -0.187493         0.182654        -0.284003
 C         1.282348        -0.068757         0.169392
 C         2.111338         0.915594         1.133738
 C         3.295971         0.436205         0.413787
 C         3.094454        -1.224644         0.475042
 C         3.176018        -1.124574        -1.085450
 C         2.486737         0.260517        -0.848880
 O         2.481679         1.257636        -1.910727
 O         1.653322        -1.346470         0.767260
 H        -1.023289         0.175937         0.557759
 H        -0.072551         1.260118        -0.598127
 H        -0.438633        -0.363576        -1.213240
 H         1.893314         1.920198         0.778554
 H         1.960551         1.067387         2.218284
 H         4.215414         0.934955         0.362380
 H         3.744656        -1.836223         1.196728
 H         4.079000        -1.054658        -1.515931
 H         2.555583        -1.801167        -1.545115
 H         2.341523         2.114789        -1.436797
