19
Iteration:  2439
 C        -0.211545        -0.008017        -0.217755
 C         1.213360        -0.057107         0.199912
 C         1.946507         0.868482         1.121775
 C         3.220035         0.542405         0.473355
 C         3.140703        -1.120404         0.438798
 C         3.204898        -1.029404        -1.067964
 C         2.533717         0.309425        -0.884009
 O         2.559788         1.287440        -1.835656
 O         1.780528        -1.369106         0.664773
 H        -0.942878        -0.213012         0.466264
 H        -0.450346         1.134281        -0.373576
 H        -0.351932        -0.570861        -1.147326
 H         1.566935         1.926074         0.913627
 H         1.773335         0.730868         2.220665
 H         4.266016         0.986919         0.545795
 H         3.894685        -1.754902         0.963106
 H         4.224200        -0.921047        -1.387634
 H         2.669345        -1.786087        -1.565135
 H         1.869776         1.241888        -2.474336
