19
Iteration:  3448
 C        -0.138389         0.112971        -0.267247
 C         1.334704        -0.027042         0.109454
 C         1.924994         0.928428         1.084756
 C         3.318375         0.378922         0.513640
 C         3.169508        -1.189840         0.405548
 C         3.189786        -1.077928        -1.123672
 C         2.594955         0.241348        -0.900046
 O         2.295284         1.282182        -1.814776
 O         1.814495        -1.263551         0.827633
 H        -0.905667        -0.235088         0.535861
 H        -0.229653         1.159658        -0.488205
 H        -0.456662        -0.326208        -1.330882
 H         1.771490         2.031627         0.839686
 H         1.648870         0.775856         2.152136
 H         4.242681         0.911384         0.620685
 H         3.897496        -1.887913         0.805542
 H         4.220563        -1.163434        -1.500310
 H         2.519726        -1.817394        -1.611142
 H         1.343652         1.384219        -1.898638
