19
Iteration:  4423
 C        -0.081048         0.048790        -0.171178
 C         1.320942        -0.044714         0.179237
 C         2.040109         1.088275         1.059482
 C         3.257775         0.493890         0.491854
 C         3.115868        -1.178726         0.469581
 C         3.164043        -1.137586        -1.182534
 C         2.517783         0.218688        -0.816739
 O         2.350811         1.266807        -1.775782
 O         1.764499        -1.345975         0.632304
 H        -0.629258        -0.261575         0.720413
 H        -0.365729         1.090335        -0.470129
 H        -0.457197        -0.674822        -1.069440
 H         1.873476         2.053852         0.474799
 H         1.866409         1.226073         2.184996
 H         4.276052         0.827334         0.735856
 H         3.881939        -1.862768         1.036264
 H         4.184680        -0.852918        -1.447012
 H         2.534422        -1.836553        -1.792560
 H         1.496521         1.225263        -2.236745
