19
Iteration:   274
 C        -0.185750         0.142635        -0.164266
 C         1.292840         0.050328         0.180206
 C         2.083262         0.981120         1.163306
 C         3.342395         0.355933         0.551865
 C         3.030631        -1.212393         0.390359
 C         3.252150        -1.187942        -1.095441
 C         2.534815         0.265894        -0.909966
 O         2.492186         1.304863        -1.895080
 O         1.590439        -1.286591         0.657793
 H        -0.827451        -0.175308         0.767003
 H        -0.437055         1.196491        -0.486483
 H        -0.477726        -0.596551        -0.910803
 H         2.056381         1.967705         0.691920
 H         1.868039         1.058781         2.285731
 H         4.344295         0.509338         0.676947
 H         3.550874        -1.875700         1.181768
 H         4.304276        -0.809273        -1.364000
 H         2.867654        -2.010678        -1.751153
 H         1.753656         1.231409        -2.494490
