19
Iteration:  2286
 C        -0.171317         0.012358        -0.314729
 C         1.256571         0.034969         0.101089
 C         1.955737         0.946633         1.163232
 C         3.279656         0.396066         0.546087
 C         3.124647        -1.166349         0.434740
 C         3.223383        -1.017874        -1.072527
 C         2.539216         0.259034        -0.839227
 O         2.436254         1.286863        -1.805154
 O         1.778763        -1.313352         0.661112
 H        -0.721863        -0.478645         0.409042
 H        -0.660780         1.063993        -0.600227
 H        -0.335180        -0.732182        -1.186702
 H         1.924137         2.020238         0.809852
 H         1.907459         0.764301         2.226549
 H         4.274963         0.865911         0.823849
 H         3.710203        -1.800650         1.046505
 H         4.248990        -0.834052        -1.307596
 H         2.722676        -1.613836        -1.793713
 H         1.528274         1.126303        -2.150628
