19
Iteration:  2556charge 0 multiplicity 1
 C        -0.260592        -0.053163        -0.060811
 C         1.252352        -0.027120         0.198033
 C         1.893970         0.978412         1.094863
 C         3.196973         0.523836         0.469327
 C         3.074895        -1.102966         0.388992
 C         3.321333        -1.100626        -1.137579
 C         2.617942         0.259280        -0.860865
 O         2.570106         1.354568        -1.810045
 O         1.722326        -1.361370         0.560296
 H        -0.851212        -0.054409         0.964894
 H        -0.455132         0.862693        -0.422977
 H        -0.468191        -0.843975        -0.837459
 H         1.632420         2.034737         0.879353
 H         1.811198         0.788378         2.149193
 H         4.268072         0.796152         0.656391
 H         3.742891        -1.602665         1.063843
 H         4.430317        -1.129016        -1.270481
 H         2.729448        -1.941921        -1.736026
 H         1.853144         1.006190        -2.365261
