19
Iteration:   664charge 0 multiplicity 1
 C        -0.167355         0.098567        -0.270097
 C         1.287491         0.013155         0.156925
 C         2.036339         0.955746         1.207109
 C         3.344264         0.392292         0.451572
 C         3.123671        -1.175021         0.382673
 C         3.188839        -1.126636        -1.160577
 C         2.498839         0.219685        -0.818591
 O         2.500518         1.241526        -1.788528
 O         1.636035        -1.217639         0.704501
 H        -0.825482         0.180296         0.590997
 H        -0.433694         1.151427        -0.668930
 H        -0.512068        -0.680455        -0.956115
 H         2.063806         1.958907         1.005807
 H         1.791684         0.659117         2.214414
 H         4.364976         0.755434         0.429266
 H         3.691417        -1.825117         1.072080
 H         4.124908        -0.947298        -1.569349
 H         2.657567        -1.894371        -1.659051
 H         1.679661         1.261093        -2.304845
