19
Iteration:  2575charge 0 multiplicity 1
 C        -0.237971        -0.029033        -0.036057
 C         1.263320        -0.056330         0.103287
 C         1.940062         0.989733         1.058790
 C         3.248307         0.411872         0.557669
 C         3.142504        -1.224454         0.464126
 C         3.355516        -0.962927        -1.072664
 C         2.556106         0.265845        -0.924695
 O         2.480016         1.360216        -1.839048
 O         1.625505        -1.337589         0.598997
 H        -0.423653        -0.344635         1.039786
 H        -0.621542         0.973865        -0.360751
 H        -0.468611        -0.831083        -0.735232
 H         1.927525         1.962615         0.535948
 H         1.717278         1.180716         2.103902
 H         4.229794         0.849433         0.657422
 H         3.524436        -2.072950         0.952119
 H         4.403542        -0.588553        -1.312929
 H         3.083054        -1.803241        -1.875604
 H         2.250760         1.111297        -2.774189
