19
Iteration:  2044charge 0 multiplicity 1
 C        -0.170205         0.007321        -0.157550
 C         1.311513        -0.046275         0.052557
 C         1.946979         0.988334         1.078228
 C         3.233260         0.383690         0.530327
 C         3.159037        -1.116452         0.470764
 C         3.303706        -1.035375        -1.111898
 C         2.522243         0.256214        -0.849573
 O         2.517882         1.268237        -1.808834
 O         1.638130        -1.296367         0.618785
 H        -0.556783        -0.268072         0.749681
 H        -0.777679         0.907475        -0.488802
 H        -0.393622        -0.846571        -1.029773
 H         1.750104         1.999704         0.823574
 H         1.670511         0.836185         2.115025
 H         4.163168         0.920165         0.546807
 H         3.609733        -1.858658         1.215907
 H         4.341091        -0.770269        -1.467402
 H         2.930283        -1.886653        -1.722753
 H         1.623292         1.700409        -1.665814
