19
Iteration:  4212
 C        -0.263280         0.039634         0.029494
 C         1.241484         0.015352         0.156056
 C         1.949778         1.014032         1.178235
 C         3.329978         0.499247         0.483708
 C         3.167273        -1.117703         0.437505
 C         3.313884        -1.076492        -1.186853
 C         2.425487         0.202714        -0.898489
 O         2.435425         1.167456        -1.945609
 O         1.744249        -1.342728         0.557602
 H        -0.690969        -0.144164         1.021500
 H        -0.702442         1.020294        -0.407009
 H        -0.483832        -0.841963        -0.509248
 H         1.747583         2.094309         0.945854
 H         1.787480         0.693311         2.246157
 H         4.258521         1.122483         0.494508
 H         3.584918        -1.824494         1.107535
 H         4.335333        -0.708587        -1.538371
 H         2.837416        -1.910823        -1.649754
 H         3.001715         1.908741        -1.718414
