19
Iteration:   501
 C        -0.140293         0.200029        -0.211903
 C         1.284199        -0.011235         0.151167
 C         2.028228         0.945017         1.087196
 C         3.281990         0.431020         0.414247
 C         3.074030        -1.188747         0.430329
 C         3.066681        -1.140855        -1.129385
 C         2.528635         0.208838        -0.912661
 O         2.486039         1.317930        -1.736334
 O         1.706799        -1.367983         0.772719
 H        -0.739674         0.286866         0.700367
 H        -0.088508         1.240614        -0.684063
 H        -0.507421        -0.515207        -0.942770
 H         1.864481         1.920103         0.704053
 H         2.040623         0.769121         2.188691
 H         4.205136         0.975548         0.624163
 H         3.915580        -1.754473         0.933426
 H         4.023377        -1.036643        -1.586581
 H         2.574489        -1.946713        -1.597778
 H         2.668850         1.063715        -2.666381
