19
Iteration:  1629
 C        -0.148734         0.037402        -0.363241
 C         1.279512        -0.017017         0.188049
 C         1.902857         0.915648         1.208941
 C         3.241928         0.386562         0.611943
 C         3.181182        -1.117803         0.367778
 C         3.304030        -1.078401        -1.133028
 C         2.522606         0.330133        -0.767754
 O         2.361883         1.269092        -1.835385
 O         1.712155        -1.278519         0.657295
 H        -0.941730         0.047078         0.524180
 H        -0.242578         0.916203        -0.906310
 H        -0.328863        -0.930293        -1.013279
 H         1.938611         1.920810         0.849436
 H         1.421468         0.731789         2.201027
 H         4.177963         0.967193         0.715957
 H         3.733046        -1.807004         0.989246
 H         4.344047        -0.872373        -1.413160
 H         2.819772        -1.846867        -1.706679
 H         3.015423         1.083081        -2.543413
