19
Iteration:  2004charge 0 multiplicity 1
 C        -0.079489         0.034981        -0.415529
 C         1.291359        -0.022095         0.182807
 C         2.000959         0.915252         1.170354
 C         3.285151         0.445742         0.564893
 C         3.151403        -1.136685         0.468906
 C         3.265164        -1.026916        -1.120254
 C         2.520838         0.276738        -0.849106
 O         2.285885         1.245893        -1.851047
 O         1.675560        -1.359465         0.718478
 H        -0.866356        -0.126730         0.446394
 H        -0.158179         1.032986        -0.974828
 H        -0.179393        -0.730074        -1.036597
 H         1.815060         1.995325         0.785694
 H         1.782855         0.750770         2.242906
 H         4.309807         0.888306         0.606075
 H         3.778838        -1.737782         1.124591
 H         4.301095        -0.964021        -1.576175
 H         2.620950        -1.765364        -1.658012
 H         2.508460         2.155996        -1.667478
