19
Iteration:  4425charge 0 multiplicity 1
 C        -0.069545         0.047446        -0.200721
 C         1.316442        -0.040470         0.191525
 C         2.030361         1.088161         1.047561
 C         3.277623         0.487298         0.487946
 C         3.118612        -1.171927         0.475415
 C         3.145223        -1.135683        -1.182084
 C         2.524097         0.202893        -0.803165
 O         2.342009         1.284457        -1.779802
 O         1.770984        -1.350823         0.637099
 H        -0.649051        -0.215788         0.672519
 H        -0.337050         1.051613        -0.388408
 H        -0.447037        -0.636507        -1.015343
 H         1.833582         2.067432         0.495185
 H         1.877609         1.175108         2.136718
 H         4.296138         0.832125         0.754295
 H         3.862064        -1.866629         0.991851
 H         4.158955        -0.840506        -1.414986
 H         2.534729        -1.896619        -1.754675
 H         1.480670         1.190645        -2.195397
