19
Iteration:  1920charge 0 multiplicity 1
 C        -0.208803        -0.007254        -0.148175
 C         1.241937        -0.010835         0.093257
 C         1.959113         1.059434         1.039503
 C         3.171811         0.367239         0.612705
 C         3.114528        -1.162153         0.386580
 C         3.392283        -1.033464        -1.114355
 C         2.644209         0.232541        -0.922230
 O         2.386840         1.286320        -1.711253
 O         1.658790        -1.322290         0.613071
 H        -0.783284        -0.349888         0.797076
 H        -0.557080         0.994000        -0.359457
 H        -0.497010        -0.833383        -1.071942
 H         2.021341         2.085329         0.704893
 H         1.585431         1.169930         2.059160
 H         4.230014         0.718622         0.859059
 H         3.706501        -1.681675         1.067389
 H         4.462559        -0.827191        -1.167185
 H         3.133466        -1.771345        -1.854235
 H         2.708458         1.257810        -2.635218
