19
Iteration:  1700charge 0 multiplicity 1
 C        -0.132939         0.084745        -0.340480
 C         1.296659        -0.089298         0.016765
 C         1.875064         0.957577         1.055725
 C         3.255364         0.423958         0.542300
 C         3.180826        -1.137807         0.449644
 C         3.287936        -1.030036        -1.084714
 C         2.479904         0.243754        -0.828471
 O         2.310937         1.314801        -1.702481
 O         1.735556        -1.404091         0.741032
 H        -0.928130        -0.243019         0.268725
 H        -0.288973         1.256380        -0.498099
 H        -0.369456        -0.306376        -1.313700
 H         1.961441         1.934390         0.463722
 H         1.816976         1.144234         2.100752
 H         4.297242         0.833506         0.635541
 H         3.837666        -1.728247         1.107665
 H         4.497947        -0.953531        -1.308352
 H         2.827604        -1.986965        -1.555727
 H         3.205495         1.570233        -2.044671
