19
Iteration:   802
 C        -0.196969        -0.017441        -0.269037
 C         1.305492         0.036576         0.153270
 C         1.993830         0.913287         1.205833
 C         3.310231         0.410074         0.521147
 C         3.086607        -1.108343         0.436593
 C         3.160851        -1.023943        -1.070003
 C         2.562558         0.311202        -0.817547
 O         2.469838         1.172751        -1.967371
 O         1.653541        -1.269472         0.662801
 H        -0.838243        -0.404796         0.573669
 H        -0.634835         0.987242        -0.449654
 H        -0.172490        -0.661361        -1.212055
 H         1.882225         2.073460         0.980257
 H         1.839693         0.670120         2.319969
 H         4.397598         0.692782         0.677002
 H         3.708302        -1.853462         0.925882
 H         4.199542        -0.853734        -1.468625
 H         2.609469        -1.844638        -1.575010
 H         2.886985         2.016459        -1.633590
