19
Iteration:   167charge 0 multiplicity 1
 C        -0.155449         0.117985        -0.287151
 C         1.352181         0.072709         0.078133
 C         2.043454         0.944553         1.135941
 C         3.354472         0.300955         0.588549
 C         3.112869        -1.198227         0.502446
 C         3.197229        -1.159189        -1.117857
 C         2.572790         0.260219        -0.877269
 O         2.313179         1.269292        -1.812596
 O         1.631258        -1.166276         0.654904
 H        -0.604025        -0.006459         0.748059
 H        -0.648360         1.026591        -0.640883
 H        -0.534419        -0.714259        -0.870019
 H         2.056152         1.994132         0.906257
 H         1.831513         0.787792         2.211126
 H         4.354884         0.658338         0.676992
 H         3.488293        -2.054728         1.166427
 H         4.137093        -0.995513        -1.515910
 H         2.739096        -1.929601        -1.663144
 H         2.860462         1.058850        -2.574489
