19
Iteration:  2932charge 0 multiplicity 1
 C        -0.126103        -0.045363        -0.122732
 C         1.329244        -0.005345         0.191854
 C         1.958349         0.949690         1.167393
 C         3.282976         0.448660         0.488184
 C         3.116747        -1.130902         0.386503
 C         3.158502        -1.036556        -1.105680
 C         2.567308         0.328447        -0.849323
 O         2.415456         1.233506        -1.950008
 O         1.695315        -1.329222         0.642609
 H        -0.906669        -0.401351         0.713572
 H        -0.505120         0.994911        -0.541366
 H        -0.315835        -0.549022        -1.051507
 H         1.914782         2.006909         1.160303
 H         1.862804         0.642910         2.205250
 H         4.238692         0.925966         0.698101
 H         3.725723        -1.916161         0.865322
 H         4.255871        -1.134967        -1.487272
 H         2.521806        -1.793345        -1.612546
 H         2.518633         2.182575        -1.718767
