19
Iteration:  3521
 C        -0.155765        -0.007131        -0.096027
 C         1.290913        -0.038180         0.174909
 C         1.946994         0.936487         1.136477
 C         3.252111         0.425265         0.479594
 C         3.168146        -1.184242         0.377940
 C         3.162999        -1.061312        -1.078238
 C         2.551054         0.333735        -0.906340
 O         2.451297         1.355203        -1.956036
 O         1.750012        -1.318890         0.748340
 H        -0.695980        -0.023615         0.891686
 H        -0.295602         0.957191        -0.582703
 H        -0.509877        -0.672889        -0.729392
 H         1.825649         1.917400         0.791441
 H         1.676314         0.807141         2.165438
 H         4.302496         0.834245         0.704633
 H         3.761891        -1.871083         0.984191
 H         4.181748        -1.067840        -1.411560
 H         2.551082        -1.802406        -1.623023
 H         1.916743         1.023910        -2.733332
