19
Iteration:  3080charge 0 multiplicity 1
 C        -0.312961         0.057067        -0.088644
 C         1.233670         0.031779         0.145424
 C         1.949282         0.968534         1.147434
 C         3.254931         0.426362         0.500699
 C         3.271814        -1.125735         0.380363
 C         3.148873        -1.075856        -1.177715
 C         2.567649         0.324520        -0.854587
 O         2.446139         1.180004        -1.843583
 O         1.762093        -1.308661         0.622790
 H        -0.738551        -0.274899         0.785848
 H        -0.688721         0.981850        -0.332566
 H        -0.605362        -0.782952        -0.789856
 H         1.987030         2.032586         0.853172
 H         1.917080         0.986161         2.214630
 H         4.293111         0.607595         0.632072
 H         3.746754        -1.791162         1.093965
 H         4.092890        -1.055935        -1.638889
 H         2.488923        -1.853884        -1.517332
 H         3.341094         1.463678        -2.214639
