19
Iteration:  4588
 C        -0.101120        -0.017655        -0.203495
 C         1.347718         0.032231         0.113504
 C         1.990210         0.942777         1.151220
 C         3.269745         0.385099         0.523927
 C         3.164433        -1.174881         0.396662
 C         3.125348        -1.027072        -1.146386
 C         2.532590         0.328381        -0.859881
 O         2.381140         1.257475        -1.873509
 O         1.714449        -1.247216         0.752967
 H        -0.304240        -0.318544         0.799555
 H        -0.581128         0.873194        -0.460370
 H        -0.231065        -0.900552        -0.952440
 H         2.016036         2.076710         0.960202
 H         1.863905         0.872888         2.253892
 H         4.256170         0.813188         0.590932
 H         3.834970        -1.907684         0.840142
 H         4.075175        -0.970552        -1.561302
 H         2.403466        -1.765854        -1.498142
 H         1.719079         0.977116        -2.554808
