19
Iteration:  4118charge 0 multiplicity 1
 C        -0.077125         0.053108        -0.396417
 C         1.370223        -0.041536         0.255388
 C         2.061030         0.969986         1.188573
 C         3.335926         0.431947         0.520123
 C         3.115376        -1.129574         0.367236
 C         3.142377        -1.051173        -1.133006
 C         2.581240         0.293295        -0.935267
 O         2.083934         1.220310        -1.837772
 O         1.770262        -1.294588         0.836340
 H        -0.844910        -0.162225         0.374001
 H        -0.141104         1.109623        -0.563883
 H        -0.223070        -0.686301        -1.348990
 H         2.183886         1.954197         0.876228
 H         1.854747         0.741326         2.246956
 H         4.364149         0.728737         0.521187
 H         3.703355        -1.909328         0.815704
 H         4.213707        -1.092422        -1.351532
 H         2.540650        -1.929368        -1.483725
 H         2.848027         1.656261        -2.261040
