19
Iteration:  3704charge 0 multiplicity 1
 C        -0.272160        -0.023725        -0.003176
 C         1.255055        -0.031382         0.187876
 C         2.003563         0.961654         1.098766
 C         3.210528         0.513221         0.360749
 C         3.140939        -1.149062         0.336443
 C         3.168323        -1.119018        -1.083081
 C         2.557118         0.306255        -0.882587
 O         2.591034         1.281892        -1.873434
 O         1.708625        -1.303152         0.709372
 H        -0.579939        -0.288455         1.038906
 H        -0.593597         1.028591        -0.353779
 H        -0.581744        -0.935809        -0.626486
 H         1.804570         2.042996         0.886020
 H         1.949849         0.905212         2.280693
 H         4.218857         1.006578         0.281876
 H         3.810649        -1.748976         0.941743
 H         4.140634        -0.794031        -1.448764
 H         2.816309        -1.920750        -1.766503
 H         1.991914         1.085177        -2.595204
