19
Iteration:   829
 C        -0.182633        -0.022860        -0.266275
 C         1.310084         0.044863         0.147395
 C         2.028035         1.002395         1.225834
 C         3.266344         0.426289         0.487224
 C         3.016820        -1.175607         0.476330
 C         3.323006        -1.114012        -1.081963
 C         2.581506         0.244389        -0.870193
 O         2.326522         1.312857        -1.857198
 O         1.644648        -1.270703         0.622999
 H        -0.925022        -0.248684         0.486363
 H        -0.302485         0.997987        -0.591050
 H        -0.222601        -0.700515        -1.069871
 H         2.058711         2.029918         1.082776
 H         1.900855         0.693359         2.259287
 H         4.267977         0.777157         0.640548
 H         3.581677        -1.916145         1.070528
 H         4.397699        -0.912320        -1.263690
 H         2.910148        -2.044233        -1.714728
 H         3.190714         1.322856        -2.380013
