19
Iteration:  3193charge 0 multiplicity 1
 C        -0.298628         0.096092        -0.019305
 C         1.239760         0.013980         0.169128
 C         1.995538         0.853753         1.151467
 C         3.282168         0.383442         0.400342
 C         3.154741        -1.110837         0.387996
 C         3.245903        -1.119112        -1.134472
 C         2.515329         0.241385        -0.938484
 O         2.554080         1.282639        -1.950852
 O         1.727977        -1.253858         0.702682
 H        -0.765222        -0.107520         1.035895
 H        -0.688457         1.000771        -0.579090
 H        -0.574310        -0.698356        -0.589505
 H         2.002903         1.973473         1.046339
 H         1.718984         0.601666         2.266769
 H         4.294915         0.799919         0.453902
 H         3.623394        -1.799602         1.132874
 H         4.304626        -0.884744        -1.392501
 H         2.736046        -1.939940        -1.614454
 H         1.752705         1.823115        -1.806687
