19
Iteration:  4471charge 0 multiplicity 1
 C        -0.073149        -0.003512        -0.353319
 C         1.320561         0.025615         0.203625
 C         2.097005         1.006609         1.247580
 C         3.382596         0.455244         0.420549
 C         3.145779        -1.123087         0.392923
 C         3.121948        -1.123540        -1.125549
 C         2.466932         0.274095        -0.899849
 O         2.295985         1.246728        -1.772814
 O         1.708067        -1.276868         0.771499
 H        -0.951452        -0.324885         0.255569
 H        -0.339110         0.955218        -0.761290
 H        -0.022880        -0.692333        -1.190724
 H         1.845754         2.056269         1.356487
 H         1.990461         0.533280         2.204977
 H         4.397539         0.821768         0.195286
 H         3.703358        -1.816483         0.923917
 H         4.089017        -0.754098        -1.479909
 H         2.637071        -2.047709        -1.497936
 H         1.573793         1.153198        -2.413707
