19
Iteration:  3985
 C        -0.042704         0.073129        -0.261650
 C         1.358287         0.051022         0.143601
 C         2.036505         0.902415         1.124407
 C         3.303322         0.421198         0.467363
 C         3.127947        -1.162084         0.466616
 C         3.149931        -1.080044        -1.170059
 C         2.449733         0.200546        -0.922982
 O         2.190453         1.258180        -1.795654
 O         1.786532        -1.270335         0.829548
 H        -0.837237        -0.125495         0.440947
 H        -0.328987         1.094665        -0.718966
 H        -0.349088        -0.691611        -1.148317
 H         1.954588         1.982285         0.944366
 H         2.064669         0.799542         2.206568
 H         4.197241         1.087183         0.438198
 H         3.736043        -1.810583         1.083332
 H         4.198396        -1.115392        -1.497995
 H         2.742551        -1.783151        -1.850823
 H         2.912233         1.415368        -2.402761
