19
Iteration:  1909
 C        -0.255847         0.011719        -0.166240
 C         1.267861        -0.035614         0.102014
 C         1.901509         1.013497         1.046658
 C         3.247856         0.392545         0.570528
 C         3.088944        -1.134185         0.495892
 C         3.359266        -1.035136        -1.127876
 C         2.575369         0.251796        -0.868971
 O         2.439558         1.350215        -1.783768
 O         1.728007        -1.356366         0.621551
 H        -0.719786        -0.366126         0.810479
 H        -0.613416         1.025556        -0.361427
 H        -0.751886        -0.683104        -1.080140
 H         1.698109         1.938741         0.529085
 H         1.745525         0.912599         2.111127
 H         4.312006         0.734564         0.797278
 H         3.636635        -1.897428         0.949182
 H         4.436731        -0.885918        -1.258190
 H         2.943260        -1.789054        -1.789684
 H         2.938221         1.071286        -2.539538
