19
Iteration:  3896
 C        -0.236070         0.008846        -0.046444
 C         1.231508         0.013240         0.180653
 C         1.989744         0.974404         1.122008
 C         3.293952         0.419979         0.433411
 C         3.165726        -1.108477         0.387774
 C         3.109818        -1.039921        -1.116233
 C         2.496463         0.293191        -0.910037
 O         2.463698         1.264515        -1.893244
 O         1.774298        -1.353545         0.713038
 H        -0.672111        -0.119299         0.987153
 H        -0.370968         0.962283        -0.608156
 H        -0.567321        -0.780013        -0.825849
 H         1.751804         2.022069         0.851940
 H         1.924752         1.004411         2.167608
 H         4.342400         0.744348         0.515478
 H         3.817706        -1.711648         1.030533
 H         4.115715        -0.985188        -1.554745
 H         2.642072        -1.883757        -1.573200
 H         3.117916         0.971897        -2.526667
