19
Iteration:  3175charge 0 multiplicity 1
 C        -0.162159         0.072715        -0.167903
 C         1.302760        -0.027686         0.203023
 C         2.075271         0.940169         1.234691
 C         3.295912         0.474817         0.448394
 C         3.089080        -1.181921         0.413438
 C         3.137814        -1.076439        -1.192281
 C         2.576516         0.308818        -0.917605
 O         2.437481         1.234387        -1.987040
 O         1.701641        -1.338443         0.785180
 H        -0.881514         0.081049         0.605179
 H        -0.213684         1.065367        -0.657210
 H        -0.552515        -0.738237        -0.890657
 H         1.676119         2.000070         1.226339
 H         2.067379         0.561936         2.284244
 H         4.269055         0.974911         0.751407
 H         3.748923        -1.877192         0.848683
 H         4.211195        -1.037300        -1.425150
 H         2.489405        -1.814082        -1.770376
 H         1.710622         1.852297        -1.814603
