19
Iteration:  4733charge 0 multiplicity 1
 C        -0.163318        -0.031083        -0.038742
 C         1.297011        -0.060855         0.153684
 C         1.941243         0.946063         1.007459
 C         3.275317         0.481373         0.441129
 C         3.147780        -1.110367         0.336163
 C         3.130330        -1.102610        -1.105771
 C         2.502941         0.290361        -0.885447
 O         2.498031         1.313353        -1.818416
 O         1.741076        -1.312497         0.737878
 H        -0.722856        -0.089936         0.959944
 H        -0.274161         1.090095        -0.298151
 H        -0.600347        -0.729062        -0.739071
 H         2.050494         1.964286         0.535450
 H         1.713340         1.119411         2.113807
 H         4.258251         1.050916         0.539109
 H         3.811694        -1.694081         0.995630
 H         4.236006        -1.180631        -1.390590
 H         2.523797        -1.894633        -1.496565
 H         2.132917         0.930070        -2.637628
