19
Iteration:  3657charge 0 multiplicity 1
 C        -0.102234         0.100812        -0.214264
 C         1.365316         0.036600         0.119759
 C         2.058907         0.966927         1.092171
 C         3.362196         0.562586         0.467344
 C         3.167910        -1.171872         0.451447
 C         3.233291        -1.074787        -1.123484
 C         2.607401         0.246610        -0.887472
 O         2.234327         1.213527        -1.872538
 O         1.632232        -1.367916         0.756192
 H        -0.586681        -0.224688         0.644609
 H        -0.441718         1.078364        -0.515347
 H        -0.370785        -0.693715        -1.009313
 H         1.653693         2.044603         1.128684
 H         1.841273         0.586467         2.128870
 H         4.334879         0.908651         0.655885
 H         3.641874        -2.008752         0.980949
 H         4.349007        -1.125113        -1.413451
 H         2.661000        -1.890521        -1.605817
 H         1.269491         1.328792        -1.809302
