19
Iteration:  3519
 C        -0.157262        -0.014737        -0.103197
 C         1.297010        -0.022009         0.167520
 C         1.976861         0.923965         1.147185
 C         3.251533         0.419546         0.494728
 C         3.175229        -1.171285         0.381241
 C         3.172966        -1.057804        -1.072025
 C         2.544044         0.319934        -0.921161
 O         2.437329         1.350492        -1.957638
 O         1.736146        -1.309584         0.753109
 H        -0.708927        -0.030972         0.801123
 H        -0.302575         1.003632        -0.605697
 H        -0.560245        -0.724349        -0.759218
 H         1.806089         1.943347         0.849635
 H         1.628916         0.795166         2.185131
 H         4.302159         0.787170         0.653788
 H         3.820539        -1.879903         0.931078
 H         4.197143        -1.104266        -1.401200
 H         2.544083        -1.785255        -1.593072
 H         1.905657         1.108087        -2.725676
