19
Iteration:  2271charge 0 multiplicity 1
 C        -0.210908         0.030984        -0.216617
 C         1.314379        -0.071448         0.137816
 C         1.866465         0.962629         1.108841
 C         3.238738         0.464096         0.534586
 C         3.208716        -1.147054         0.444443
 C         3.269765        -1.136106        -1.132823
 C         2.562645         0.293999        -0.862339
 O         2.513594         1.359044        -1.801106
 O         1.720557        -1.347299         0.669286
 H        -0.904460        -0.392816         0.575867
 H        -0.370255         1.037683        -0.300800
 H        -0.515894        -0.461838        -1.187936
 H         1.622241         1.959564         0.702299
 H         1.386226         0.856847         2.137992
 H         4.174555         0.979690         0.537944
 H         3.748547        -1.942992         1.059841
 H         4.244048        -0.948604        -1.623963
 H         2.703764        -2.012895        -1.495177
 H         1.707018         1.507026        -2.266444
