19
Iteration:  2007charge 0 multiplicity 1
 C        -0.091164         0.063028        -0.395255
 C         1.301714        -0.056020         0.187052
 C         2.008204         0.940854         1.151403
 C         3.296967         0.423766         0.573902
 C         3.150757        -1.153260         0.470579
 C         3.285916        -1.040909        -1.121474
 C         2.539436         0.273980        -0.858057
 O         2.278611         1.261091        -1.849212
 O         1.664216        -1.333239         0.702491
 H        -0.924230        -0.209289         0.376104
 H        -0.255280         0.957829        -0.941167
 H        -0.218380        -0.887058        -1.015262
 H         1.724449         1.946934         0.799136
 H         1.803586         0.748860         2.222454
 H         4.303873         0.898431         0.636163
 H         3.747735        -1.681644         1.161253
 H         4.249500        -0.961357        -1.504350
 H         2.676589        -1.743942        -1.626267
 H         2.428176         2.197044        -1.663317
