19
Iteration:   196charge 0 multiplicity 1
 C        -0.097615         0.201362        -0.277763
 C         1.290622        -0.051143         0.220534
 C         2.038980         1.073656         1.095573
 C         3.353319         0.461217         0.470645
 C         3.075583        -1.225457         0.436266
 C         3.139119        -1.166078        -1.074792
 C         2.565201         0.220405        -0.874374
 O         2.364293         1.222266        -1.829529
 O         1.642539        -1.349506         0.674244
 H        -0.802391        -0.037859         0.604301
 H        -0.333419         1.263644        -0.633702
 H        -0.467360        -0.499358        -1.035647
 H         1.704018         2.024405         0.622149
 H         2.053287         0.944987         2.202520
 H         4.390295         0.711917         0.585442
 H         3.576795        -2.052240         0.978151
 H         4.256772        -0.972022        -1.302798
 H         2.810025        -1.995509        -1.750084
 H         2.840848         2.007315        -1.545923
