19
Iteration:  3486
 C        -0.078083        -0.000989        -0.324535
 C         1.339360         0.081011         0.229043
 C         2.105554         1.000647         1.204998
 C         3.297568         0.493124         0.409444
 C         3.142418        -1.201767         0.389665
 C         3.212750        -1.130537        -1.052373
 C         2.470550         0.271816        -0.807001
 O         2.283059         1.180047        -1.750044
 O         1.695307        -1.233151         0.597063
 H        -0.847788        -0.126034         0.361432
 H        -0.331247         1.041177        -0.721374
 H        -0.110711        -0.773881        -1.031647
 H         1.883650         2.048508         1.007865
 H         1.968807         0.692153         2.257138
 H         4.356134         0.850490         0.309410
 H         3.824842        -1.869128         1.005231
 H         4.210384        -0.908720        -1.434248
 H         2.725213        -1.853512        -1.700787
 H         1.313046         1.125254        -1.998546
