19
Iteration:  3004
 C        -0.086248         0.120335        -0.253373
 C         1.329794         0.048471         0.129195
 C         1.963351         0.991590         1.090543
 C         3.231377         0.409586         0.507216
 C         3.254334        -1.151382         0.412874
 C         3.150386        -1.126229        -1.126132
 C         2.512443         0.238986        -0.851675
 O         2.368322         1.256151        -1.777106
 O         1.781618        -1.388131         0.693766
 H        -0.706771         0.111216         0.645931
 H        -0.249722         1.057048        -0.684797
 H        -0.516689        -0.609058        -1.018586
 H         1.697499         2.058694         0.867457
 H         1.609604         0.783050         2.170396
 H         4.188699         0.898438         0.503077
 H         3.824145        -1.780035         1.079555
 H         4.072549        -0.951559        -1.635734
 H         2.498965        -1.852100        -1.602663
 H         1.455414         1.547529        -1.700246
