19
Iteration:  3961
 C        -0.045449         0.078138        -0.345113
 C         1.380612         0.034677         0.233751
 C         2.071430         1.054473         1.164286
 C         3.417116         0.416083         0.537205
 C         3.171416        -1.178284         0.408096
 C         3.242110        -1.104860        -1.114688
 C         2.509671         0.243193        -0.845232
 O         2.039311         1.139113        -1.786998
 O         1.679269        -1.295095         0.659116
 H        -0.834366        -0.051127         0.456862
 H        -0.283087         1.141812        -0.604859
 H        -0.487034        -0.531510        -1.153777
 H         1.849958         2.120389         0.770275
 H         2.080887         1.136039         2.245888
 H         4.455644         0.786457         0.666547
 H         3.732761        -1.920776         0.995057
 H         4.133285        -1.051262        -1.734503
 H         2.726425        -1.889075        -1.651234
 H         2.681609         1.759511        -2.203899
