19
Iteration:  3337charge 0 multiplicity 1
 C        -0.155312         0.067185        -0.249902
 C         1.284811        -0.001970         0.205338
 C         2.105478         0.989612         1.174495
 C         3.323743         0.419672         0.412362
 C         3.081795        -1.135460         0.422696
 C         3.255943        -1.152193        -1.126934
 C         2.532432         0.227533        -0.833898
 O         2.226685         1.264536        -1.827185
 O         1.708127        -1.304038         0.648323
 H        -0.812805        -0.033753         0.735032
 H        -0.339269         0.994861        -0.845004
 H        -0.456009        -0.827763        -0.781848
 H         1.909410         2.053376         0.925088
 H         2.078028         0.738913         2.275253
 H         4.356251         0.844694         0.322135
 H         3.700347        -1.628247         1.123544
 H         4.268810        -0.895450        -1.383440
 H         2.719060        -1.928904        -1.730882
 H         2.989437         1.871486        -1.637353
