19
Iteration:  1784
 C        -0.134288         0.040887        -0.344335
 C         1.293472        -0.087019         0.158605
 C         1.856860         0.934759         1.181109
 C         3.222744         0.459897         0.536184
 C         3.188140        -1.171639         0.490677
 C         3.240480        -1.037557        -1.145685
 C         2.534650         0.288344        -0.866929
 O         2.404795         1.319131        -1.830627
 O         1.709248        -1.341297         0.682226
 H        -0.774819         0.087205         0.652355
 H        -0.219808         1.021504        -0.993164
 H        -0.308798        -0.773945        -1.028335
 H         1.827080         2.016795         1.079037
 H         1.772606         0.674692         2.262680
 H         4.130881         0.996244         0.665695
 H         3.653186        -1.881328         1.241744
 H         4.222791        -0.941717        -1.429202
 H         2.750127        -1.818047        -1.659171
 H         3.217950         1.374234        -2.337822
