19
Iteration:  3339
 C        -0.174198         0.078795        -0.229508
 C         1.270684        -0.011319         0.210523
 C         2.107890         0.999279         1.164458
 C         3.318400         0.426381         0.396662
 C         3.088167        -1.131811         0.433157
 C         3.254587        -1.150970        -1.110732
 C         2.531454         0.229707        -0.832610
 O         2.247040         1.272806        -1.823967
 O         1.709090        -1.323050         0.630876
 H        -0.811944        -0.017789         0.652917
 H        -0.347041         0.960902        -0.787705
 H        -0.429537        -0.918959        -0.763624
 H         1.916086         2.135982         0.917932
 H         2.075302         0.704721         2.279144
 H         4.310331         0.866809         0.336857
 H         3.757297        -1.677346         1.060082
 H         4.294887        -0.923145        -1.403712
 H         2.683693        -1.932975        -1.674933
 H         3.006000         1.855493        -1.719763
