19
Iteration:  3998charge 0 multiplicity 1
 C        -0.164521         0.018900        -0.252801
 C         1.285991        -0.075597         0.204390
 C         2.061700         0.983270         1.182270
 C         3.320261         0.459730         0.386699
 C         3.198797        -1.115954         0.431719
 C         3.154737        -1.167523        -1.144180
 C         2.485468         0.261720        -0.889713
 O         2.296993         1.338248        -1.848507
 O         1.727904        -1.272037         0.798680
 H        -0.697397        -0.066400         0.692134
 H        -0.254581         1.071873        -0.616238
 H        -0.426818        -0.814516        -1.072156
 H         1.760598         1.964401         0.974223
 H         1.810517         0.594404         2.173304
 H         4.365156         0.805482         0.486872
 H         3.841864        -1.826923         0.959437
 H         4.034302        -0.802307        -1.620155
 H         2.555277        -1.991746        -1.501042
 H         3.024617         1.170761        -2.500030
