19
Iteration:  4538
 C        -0.272312         0.029954         0.081187
 C         1.272456        -0.073497         0.107748
 C         2.013035         0.986360         1.101805
 C         3.249532         0.495823         0.381566
 C         3.111148        -1.043036         0.461529
 C         3.287029        -1.130523        -1.116022
 C         2.416822         0.155698        -0.996643
 O         2.547143         1.344251        -1.791044
 O         1.716135        -1.357443         0.594649
 H        -0.776597         0.031947         1.097503
 H        -0.377928         1.037010        -0.453754
 H        -0.629209        -0.635613        -0.641861
 H         1.800255         2.023127         1.016673
 H         1.897612         0.660816         2.144740
 H         4.342136         0.718329         0.381989
 H         3.726494        -1.641289         1.096182
 H         4.309622        -0.642850        -1.324946
 H         3.078814        -2.117018        -1.629122
 H         2.012890         1.260891        -2.609300
