19
Iteration:  2064
 C        -0.252967        -0.033005        -0.138617
 C         1.222848        -0.051693         0.221364
 C         1.902113         0.942805         1.160170
 C         3.240951         0.503627         0.535294
 C         3.076821        -1.148557         0.373983
 C         3.266360        -1.075063        -1.089992
 C         2.549625         0.315854        -0.908403
 O         2.648441         1.313319        -1.890410
 O         1.758232        -1.346709         0.628334
 H        -0.943188        -0.206645         0.680937
 H        -0.555285         0.962036        -0.360723
 H        -0.653038        -0.668772        -1.101929
 H         1.713909         1.954505         0.914572
 H         1.610943         0.867639         2.220002
 H         4.140291         1.053558         0.765346
 H         3.819053        -1.717411         1.008224
 H         4.268805        -1.091180        -1.390465
 H         2.670648        -1.750950        -1.653352
 H         1.893258         1.217655        -2.542348
