19
Iteration:   359
 C        -0.147275         0.024192        -0.294763
 C         1.269727         0.111513         0.109565
 C         2.180882         0.958395         1.233337
 C         3.312583         0.304084         0.593165
 C         3.112956        -1.208105         0.418902
 C         3.170533        -1.041995        -1.178632
 C         2.540623         0.221815        -0.876528
 O         2.452498         1.198662        -1.814130
 O         1.530067        -1.124222         0.695135
 H        -0.681461         0.012272         0.588491
 H        -0.518231         0.885326        -0.859569
 H        -0.269700        -0.848604        -0.834213
 H         2.282879         2.025958         1.121507
 H         2.174833         0.454380         2.216025
 H         4.327925         0.786692         0.540625
 H         3.568053        -1.967640         1.115905
 H         4.316925        -0.916242        -1.511572
 H         2.719206        -1.751100        -1.991946
 H         1.602081         1.229552        -2.343616
