19
Iteration:   819
 C        -0.231427        -0.032772        -0.308519
 C         1.262957         0.019414         0.161777
 C         2.132963         1.006673         1.275611
 C         3.282150         0.462330         0.551649
 C         3.053561        -1.210234         0.487131
 C         3.308187        -1.113784        -1.095360
 C         2.582271         0.324833        -0.945002
 O         2.362959         1.273567        -1.921550
 O         1.606783        -1.304052         0.659229
 H        -0.868813        -0.342262         0.566435
 H        -0.647965         0.900901        -0.622814
 H        -0.407812        -0.683052        -1.152309
 H         1.961644         2.016031         1.180580
 H         2.019377         0.734342         2.281339
 H         4.262872         0.967931         0.676804
 H         3.548241        -1.872300         1.236316
 H         4.370125        -1.051301        -1.283751
 H         2.845768        -1.817785        -1.845964
 H         3.230878         1.692148        -2.176584
