19
Iteration:  4959charge 0 multiplicity 1
 C        -0.081103         0.063172        -0.275518
 C         1.342625         0.014804         0.197082
 C         2.092411         1.075699         1.134460
 C         3.340338         0.495444         0.520665
 C         3.078203        -1.191485         0.444119
 C         3.227882        -1.027944        -1.164650
 C         2.552056         0.233558        -0.832223
 O         2.178625         1.094862        -1.861291
 O         1.746177        -1.306219         0.669189
 H        -0.642607        -0.109383         0.628277
 H        -0.483333         0.924041        -0.833468
 H        -0.309198        -0.708899        -1.073124
 H         2.107396         2.036146         0.676898
 H         1.929771         1.138736         2.163107
 H         4.403940         0.919942         0.762504
 H         3.592143        -1.932302         1.034046
 H         4.267073        -1.059092        -1.587915
 H         2.645898        -1.861712        -1.534084
 H         1.589170         1.604115        -1.259247
