19
Iteration:  1976charge 0 multiplicity 1
 C        -0.105389         0.096519        -0.447665
 C         1.276454        -0.033369         0.245519
 C         1.903449         0.884110         1.267263
 C         3.248038         0.514091         0.587333
 C         3.242487        -1.145825         0.391497
 C         3.151420        -1.083836        -1.162378
 C         2.466963         0.268326        -0.828782
 O         2.352758         1.213808        -1.862682
 O         1.781331        -1.276767         0.727769
 H        -0.846661         0.053530         0.339543
 H        -0.116043         0.966725        -1.019493
 H         0.026134        -0.870331        -1.262164
 H         1.500609         1.846537         1.184011
 H         1.761208         0.478028         2.284819
 H         4.231254         0.985524         0.546943
 H         3.852135        -1.793940         1.025313
 H         4.083036        -1.044982        -1.722910
 H         2.492751        -1.804570        -1.636112
 H         3.190644         1.724592        -2.014516
