19
Iteration:  4597charge 0 multiplicity 1
 C        -0.063352        -0.030978        -0.216543
 C         1.347241         0.070670         0.138622
 C         2.043240         0.948575         1.206947
 C         3.292551         0.429987         0.485670
 C         3.142596        -1.156223         0.419612
 C         3.115528        -1.090089        -1.135152
 C         2.532730         0.270053        -0.850057
 O         2.345503         1.315384        -1.866234
 O         1.719943        -1.257253         0.735517
 H        -0.817031        -0.433260         0.460401
 H        -0.514170         0.863113        -0.589663
 H        -0.144855        -0.826275        -1.055749
 H         2.033384         2.009141         0.793270
 H         1.829674         0.827598         2.299484
 H         4.240715         0.943919         0.458851
 H         3.683448        -1.985651         1.008874
 H         4.040687        -0.949043        -1.691879
 H         2.551252        -1.926124        -1.639922
 H         1.655274         0.786983        -2.340907
