19
Iteration:  1287charge 0 multiplicity 1
 C        -0.131476        -0.003010        -0.226520
 C         1.316027         0.035021         0.104682
 C         1.947919         0.924441         1.163904
 C         3.241292         0.460554         0.510470
 C         3.087419        -1.095814         0.500801
 C         3.333012        -1.117173        -1.014997
 C         2.620777         0.258837        -0.863084
 O         2.315863         1.263509        -1.762174
 O         1.623788        -1.256879         0.483856
 H        -0.583793        -0.005825         0.727322
 H        -0.483114         0.751263        -1.009160
 H        -0.296133        -0.983209        -0.784327
 H         1.761184         1.955858         1.018629
 H         1.716988         0.580963         2.171549
 H         4.188268         0.922494         0.513951
 H         3.629116        -1.809241         1.093310
 H         4.497928        -1.067681        -1.198015
 H         3.025395        -2.005340        -1.601362
 H         3.046478         1.540001        -2.389494
