19
Iteration:  2152
 C        -0.037386         0.160225        -0.449411
 C         1.341532        -0.048955         0.126658
 C         1.979312         0.966012         1.131229
 C         3.284998         0.452652         0.459117
 C         3.210884        -1.203675         0.424405
 C         3.269141        -1.115709        -1.073750
 C         2.499853         0.214725        -0.867508
 O         2.169489         1.253436        -1.698236
 O         1.692493        -1.337042         0.746682
 H        -0.664110         0.093696         0.386819
 H         0.013361         1.168348        -0.854825
 H        -0.463086        -0.679605        -1.189213
 H         1.685045         1.973754         0.843394
 H         1.751616         0.845442         2.228619
 H         4.175765         1.020424         0.620160
 H         3.755614        -1.970586         1.096181
 H         4.190062        -0.793474        -1.419004
 H         2.837874        -1.876289        -1.655537
 H         2.863873         1.977744        -1.642474
