19
Iteration:  1911
 C        -0.250315         0.009047        -0.161281
 C         1.253333        -0.023366         0.102832
 C         1.914919         1.030896         1.037906
 C         3.225161         0.384425         0.591243
 C         3.097886        -1.124488         0.474299
 C         3.360988        -1.029013        -1.126941
 C         2.593833         0.236261        -0.884142
 O         2.428523         1.340380        -1.767302
 O         1.720620        -1.354019         0.620707
 H        -0.705114        -0.338155         0.713006
 H        -0.596008         0.954442        -0.334608
 H        -0.749244        -0.689558        -1.033821
 H         1.750642         1.948557         0.540664
 H         1.752123         0.933446         2.120206
 H         4.269818         0.640343         0.805191
 H         3.680663        -1.891380         0.977129
 H         4.519947        -0.892364        -1.210947
 H         2.960455        -1.806488        -1.855554
 H         2.905278         1.093083        -2.585563
