19
Iteration:  3262
 C        -0.199138         0.092134        -0.145095
 C         1.303097         0.078109         0.159111
 C         2.039694         0.859476         1.247737
 C         3.302009         0.409053         0.362484
 C         3.133600        -1.153198         0.448751
 C         3.204497        -1.146647        -1.146194
 C         2.448919         0.280592        -0.904167
 O         2.454093         1.216974        -1.902549
 O         1.732059        -1.235048         0.711685
 H        -0.715936        -0.421192         0.673423
 H        -0.600436         1.052691        -0.425424
 H        -0.344185        -0.488304        -1.085350
 H         1.804586         2.009193         1.180713
 H         1.739989         0.569278         2.339806
 H         4.315578         0.880154         0.384233
 H         3.791530        -1.768966         0.995856
 H         4.226889        -0.926423        -1.459721
 H         2.770325        -2.005475        -1.757548
 H         1.773375         1.886881        -1.873053
