19
Iteration:   964
 C        -0.236791         0.098483        -0.253258
 C         1.225449        -0.034000         0.114892
 C         1.936075         0.931062         1.085117
 C         3.238275         0.434865         0.516106
 C         3.157946        -1.155734         0.433649
 C         3.329296        -1.089093        -1.127583
 C         2.517604         0.203995        -0.849384
 O         2.566798         1.253350        -1.770996
 O         1.689088        -1.311288         0.678308
 H        -0.925946        -0.370856         0.495497
 H        -0.572641         1.121474        -0.183842
 H        -0.329623        -0.299740        -1.294965
 H         1.677453         1.954526         0.788897
 H         1.719824         0.775943         2.086126
 H         4.166962         1.162186         0.574897
 H         3.679171        -1.698710         1.194201
 H         4.294235        -0.700129        -1.558057
 H         2.927837        -1.988551        -1.651234
 H         1.789990         1.821244        -1.808553
