19
Iteration:  1019
 C        -0.074555         0.035093        -0.346901
 C         1.348012         0.012709         0.144386
 C         1.885671         1.025620         1.304226
 C         3.269289         0.382654         0.668993
 C         3.064645        -1.181086         0.390721
 C         3.213658        -1.008282        -1.135106
 C         2.623719         0.322749        -0.840110
 O         2.380034         1.129731        -1.948941
 O         1.709466        -1.290909         0.655005
 H        -0.814264        -0.341353         0.389553
 H        -0.188428         1.073698        -0.619512
 H        -0.174019        -0.641452        -1.223378
 H         1.707854         2.071876         0.984334
 H         1.615161         0.761816         2.276494
 H         4.379331         0.811012         0.876116
 H         3.651063        -1.918782         0.892774
 H         4.342340        -0.939968        -1.387818
 H         2.711648        -1.734565        -1.906093
 H         1.900297         1.892114        -1.622704
