19
Iteration:   162
 C        -0.204727         0.114658        -0.285018
 C         1.372418         0.055940         0.093880
 C         2.050419         0.939293         1.131980
 C         3.397349         0.353435         0.579437
 C         3.084735        -1.198756         0.486905
 C         3.160301        -1.154065        -1.067603
 C         2.572413         0.253538        -0.887004
 O         2.342928         1.294030        -1.835522
 O         1.637258        -1.205422         0.660680
 H        -0.716269         0.013742         0.692569
 H        -0.662913         1.064036        -0.684190
 H        -0.500514        -0.767753        -0.909247
 H         1.994682         2.070680         1.086149
 H         1.885948         0.749410         2.201371
 H         4.472753         0.652277         0.780528
 H         3.506547        -2.035064         0.981692
 H         4.281050        -0.933882        -1.395262
 H         2.646005        -1.948401        -1.740845
 H         2.737879         0.890463        -2.651034
