19
Iteration:  1643charge 0 multiplicity 1
 C        -0.088540        -0.020847        -0.402896
 C         1.297355         0.074796         0.124695
 C         1.980520         0.887968         1.279884
 C         3.310871         0.424213         0.633482
 C         3.120473        -1.199400         0.520000
 C         3.223599        -0.998513        -1.063493
 C         2.511060         0.321676        -0.886071
 O         2.290815         1.295649        -1.908824
 O         1.712082        -1.298102         0.642563
 H        -0.979228        -0.131569         0.297865
 H        -0.385533         0.807793        -1.138525
 H        -0.100190        -0.825535        -1.025197
 H         1.787406         1.938562         1.251882
 H         1.885616         0.572833         2.339338
 H         4.286710         0.776495         0.856099
 H         3.632479        -1.988991         1.097626
 H         4.332475        -0.787507        -1.521234
 H         2.720589        -1.818154        -1.659354
 H         3.028659         1.157361        -2.509083
