19
Iteration:  1316charge 0 multiplicity 1
 C        -0.180594         0.097932        -0.396574
 C         1.293516        -0.019258         0.196822
 C         1.911233         0.944073         1.197984
 C         3.199770         0.404426         0.625628
 C         3.143052        -1.132343         0.471004
 C         3.212054        -1.010882        -1.155621
 C         2.555355         0.278678        -0.840731
 O         2.360604         1.214450        -1.895141
 O         1.803445        -1.362282         0.709544
 H        -0.799899        -0.080017         0.492435
 H        -0.275510         1.155286        -0.799461
 H        -0.258566        -0.622203        -1.131208
 H         1.731774         1.976354         0.885975
 H         1.581769         0.803830         2.271176
 H         4.222727         0.761837         0.855466
 H         3.894088        -1.853688         0.865845
 H         4.294976        -0.831799        -1.430230
 H         2.739289        -1.807484        -1.738443
 H         3.153185         1.640157        -2.286467
