19
Iteration:  3399
 C        -0.268278        -0.065322        -0.046400
 C         1.250122        -0.016861         0.206048
 C         2.040092         0.970458         1.173962
 C         3.310050         0.464607         0.490505
 C         3.070856        -1.185583         0.405103
 C         3.246836        -1.093382        -1.138781
 C         2.542149         0.338825        -0.873968
 O         2.523108         1.345605        -1.961839
 O         1.658150        -1.293639         0.652434
 H        -0.625897        -0.345851         0.969850
 H        -0.760034         0.886708        -0.440767
 H        -0.553113        -0.821484        -0.677139
 H         1.841438         1.975792         0.882688
 H         1.886100         0.884300         2.233767
 H         4.339283         0.921664         0.623277
 H         3.712320        -1.901071         1.017983
 H         4.284173        -0.859266        -1.436181
 H         2.857117        -1.850163        -1.814216
 H         2.344805         0.866210        -2.814525
