19
Iteration:  1966
 C        -0.091596         0.040164        -0.381040
 C         1.264208         0.008015         0.184027
 C         1.928543         0.840886         1.265853
 C         3.262616         0.491950         0.522473
 C         3.217998        -1.062412         0.448967
 C         3.217181        -1.097842        -1.170675
 C         2.548790         0.295266        -0.827723
 O         2.318761         1.264001        -1.853684
 O         1.707874        -1.321423         0.716724
 H        -0.966230        -0.007710         0.202545
 H        -0.187918         0.970083        -0.879006
 H        -0.343606        -0.855796        -1.227005
 H         1.849658         1.883044         1.098964
 H         1.741267         0.649706         2.325426
 H         4.177242         1.041604         0.713104
 H         3.729844        -1.846293         1.039836
 H         4.140594        -1.108033        -1.822285
 H         2.492265        -1.877295        -1.481925
 H         3.289601         1.413119        -2.081810
