19
Iteration:   171charge 0 multiplicity 1
 C        -0.116762         0.121912        -0.260813
 C         1.319711         0.098911         0.063558
 C         2.051395         0.958892         1.149482
 C         3.305503         0.274204         0.581254
 C         3.116304        -1.210920         0.497466
 C         3.215935        -1.147179        -1.132306
 C         2.568044         0.249481        -0.861602
 O         2.298098         1.244199        -1.796167
 O         1.632324        -1.164372         0.652326
 H        -0.521688        -0.047356         0.688461
 H        -0.504002         1.041824        -0.652257
 H        -0.493977        -0.709743        -0.878408
 H         2.098289         2.016174         0.738427
 H         1.730683         0.799596         2.176485
 H         4.368712         0.736616         0.640432
 H         3.477723        -1.901152         1.205619
 H         4.320015        -1.034165        -1.643778
 H         2.661680        -2.042153        -1.690460
 H         2.973260         1.258575        -2.529741
