19
Iteration:  1356
 C        -0.078529         0.052833        -0.402629
 C         1.306368         0.015107         0.082672
 C         2.029745         0.960334         1.177490
 C         3.259384         0.407354         0.528531
 C         3.108048        -1.078547         0.504742
 C         3.215594        -1.134930        -0.983383
 C         2.583070         0.273309        -0.877352
 O         2.222980         1.314609        -1.748828
 O         1.723820        -1.377675         0.612819
 H        -0.853948        -0.517480         0.315386
 H        -0.502891         0.954697        -0.694373
 H        -0.157297        -0.461967        -1.426062
 H         1.854841         2.066016         0.968315
 H         1.947031         0.751419         2.238649
 H         4.314847         0.862627         0.526729
 H         3.685175        -1.684327         1.224513
 H         4.227577        -1.073576        -1.319976
 H         2.737399        -1.904845        -1.603216
 H         3.032300         1.604507        -2.216463
