19
Iteration:  1197
 C        -0.115326        -0.037642        -0.423723
 C         1.354327         0.032825         0.095479
 C         2.035387         0.937256         1.124363
 C         3.339567         0.406582         0.564706
 C         3.054567        -1.150435         0.541988
 C         3.229224        -1.027748        -1.066891
 C         2.550791         0.308471        -0.805629
 O         2.235984         1.279529        -1.838705
 O         1.658667        -1.308595         0.679237
 H        -0.760593        -0.443096         0.283292
 H        -0.466953         1.083499        -0.672794
 H        -0.025772        -0.574397        -1.353876
 H         1.856198         1.978144         1.082392
 H         1.795928         0.632235         2.157953
 H         4.353063         0.732711         0.666592
 H         3.647062        -1.786069         1.250632
 H         4.396669        -0.788586        -1.226723
 H         2.899240        -1.957070        -1.596809
 H         3.121788         1.491629        -2.207428
