19
Iteration:   903charge 0 multiplicity 1
 C        -0.168425        -0.034757        -0.333871
 C         1.307605         0.035185         0.081382
 C         2.026020         0.971449         1.229489
 C         3.263012         0.415353         0.488771
 C         3.084736        -1.170705         0.457029
 C         3.239100        -1.050885        -1.049188
 C         2.450012         0.298224        -0.844706
 O         2.522850         1.270645        -1.792168
 O         1.684039        -1.267109         0.628915
 H        -0.813661         0.099943         0.512436
 H        -0.301701         0.918930        -1.007289
 H        -0.465216        -0.977854        -0.783613
 H         1.798068         2.072771         1.317640
 H         1.967488         0.326998         2.244401
 H         4.241989         0.716533         0.488362
 H         3.571223        -1.835966         1.177746
 H         4.194862        -0.687238        -1.464323
 H         2.881694        -1.915590        -1.705444
 H         1.722653         1.197871        -2.320080
