19
Iteration:  4926
 C        -0.119064         0.007602        -0.252017
 C         1.282611         0.008028         0.225282
 C         2.080491         0.880188         1.132680
 C         3.310775         0.528751         0.419219
 C         3.135662        -1.130847         0.463594
 C         3.167035        -1.091271        -1.104592
 C         2.448127         0.204906        -0.920967
 O         2.306056         1.230078        -1.937794
 O         1.777584        -1.224468         0.771712
 H        -0.816538        -0.247541         0.523535
 H        -0.365948         1.028164        -0.560128
 H        -0.201330        -0.898097        -0.948776
 H         1.952802         1.909129         0.875235
 H         1.874182         0.810895         2.151416
 H         4.376374         0.889973         0.627997
 H         3.588945        -1.927314         1.027106
 H         4.181641        -1.020411        -1.535952
 H         2.682527        -2.001911        -1.531573
 H         2.246858         2.013921        -1.341139
