19
Iteration:  1313
 C        -0.181576         0.091609        -0.389909
 C         1.299359        -0.024451         0.178187
 C         1.932318         0.944497         1.200543
 C         3.237520         0.417776         0.614416
 C         3.142074        -1.145754         0.509976
 C         3.221498        -0.997033        -1.126827
 C         2.534941         0.292287        -0.854943
 O         2.349976         1.228835        -1.901924
 O         1.779629        -1.374782         0.676852
 H        -0.806608        -0.082752         0.664161
 H        -0.315690         1.036406        -0.866214
 H        -0.377972        -0.670283        -1.226067
 H         1.740116         2.026667         0.882282
 H         1.645797         0.801249         2.248691
 H         4.290373         0.758197         0.971638
 H         3.867198        -1.855511         0.961039
 H         4.163198        -0.872078        -1.485527
 H         2.801293        -1.830589        -1.682010
 H         3.206218         1.606735        -2.248721
