19
Iteration:  1661
 C        -0.015288        -0.030351        -0.470402
 C         1.344122         0.000613         0.129742
 C         2.053073         0.905482         1.309898
 C         3.280047         0.469358         0.555298
 C         3.052143        -1.057193         0.424466
 C         3.202043        -1.070776        -1.050309
 C         2.614129         0.382678        -0.808466
 O         2.235822         1.203549        -1.837950
 O         1.614798        -1.295631         0.619631
 H        -0.628492        -0.330789         0.448707
 H        -0.260897         0.879099        -0.886125
 H        -0.076531        -0.985144        -1.182385
 H         1.873566         1.969988         1.350710
 H         1.716165         0.462105         2.279220
 H         4.299198         0.868076         0.763741
 H         3.665172        -1.703299         1.033009
 H         4.179703        -1.059610        -1.279817
 H         2.725562        -1.772996        -1.674084
 H         3.048202         1.486784        -2.249777
