19
Iteration:  1957
 C        -0.136478         0.013628        -0.338933
 C         1.322986        -0.045101         0.098608
 C         1.983212         0.934760         1.229735
 C         3.263569         0.431335         0.519551
 C         3.127511        -1.082544         0.464764
 C         3.194972        -1.068300        -1.061541
 C         2.556982         0.301746        -0.876365
 O         2.320379         1.296824        -1.807587
 O         1.711005        -1.344571         0.656527
 H        -0.843658        -0.139476         0.428276
 H        -0.278316         0.977873        -0.877828
 H        -0.322416        -0.783597        -1.124140
 H         1.944817         2.017436         1.046248
 H         1.799545         0.580962         2.252324
 H         4.163990         0.934237         0.800185
 H         3.826854        -1.680270         1.141103
 H         4.281031        -0.940643        -1.485611
 H         2.612085        -1.927468        -1.548776
 H         3.080294         1.433260        -2.447869
