19
Iteration:  3611
 C        -0.129873         0.071195        -0.265843
 C         1.321144         0.024998         0.213723
 C         2.014141         0.999101         1.185171
 C         3.390103         0.465407         0.536940
 C         3.204782        -1.179874         0.409562
 C         3.124897        -1.076965        -1.165235
 C         2.418269         0.236948        -0.828735
 O         2.345912         1.176634        -1.838440
 O         1.795808        -1.304106         0.684570
 H        -0.929119        -0.260894         0.420782
 H        -0.441682         0.926491        -0.759052
 H        -0.255911        -0.658957        -1.074629
 H         1.949254         2.063957         0.821368
 H         1.749370         1.099789         2.218625
 H         4.338954         1.005344         0.667755
 H         3.818804        -1.833641         1.071340
 H         4.039110        -0.786808        -1.775245
 H         2.440111        -1.743577        -1.709099
 H         1.437982         1.267330        -2.246310
