19
Iteration:   164
 C        -0.183098         0.114404        -0.291129
 C         1.369381         0.059888         0.088128
 C         2.044393         0.938850         1.129867
 C         3.384992         0.331301         0.585909
 C         3.098982        -1.196385         0.496458
 C         3.176629        -1.160008        -1.092151
 C         2.573147         0.258046        -0.884829
 O         2.328063         1.285956        -1.824394
 O         1.633780        -1.184947         0.657799
 H        -0.684155         0.009393         0.756548
 H        -0.696298         1.073868        -0.668736
 H        -0.526615        -0.751603        -0.894640
 H         2.020628         2.035035         1.027496
 H         1.875199         0.774916         2.216778
 H         4.391249         0.633885         0.730831
 H         3.497726        -2.071222         1.067658
 H         4.170465        -0.956325        -1.434215
 H         2.709815        -1.912740        -1.692145
 H         2.802704         0.937297        -2.636590
