19
Iteration:   120
 C        -0.107943         0.149759        -0.200044
 C         1.251893         0.022581         0.187958
 C         1.944478         0.954150         1.191165
 C         3.278276         0.422135         0.514247
 C         3.166008        -1.144178         0.385317
 C         3.092850        -1.130752        -1.144491
 C         2.407337         0.212151        -0.880233
 O         2.641827         1.198101        -1.872053
 O         1.716895        -1.298931         0.715082
 H        -0.960164         0.225220         0.560810
 H        -0.175027         1.194457        -0.704334
 H        -0.427648        -0.571583        -0.999185
 H         1.674945         2.024618         0.965122
 H         1.609415         0.720644         2.221756
 H         4.282380         0.831335         0.589576
 H         3.774747        -1.843173         0.973595
 H         4.035724        -0.901381        -1.504853
 H         2.704552        -1.957944        -1.650158
 H         1.884108         1.588893        -2.390261
