19
Iteration:  3224
 C        -0.177338         0.049427         0.107800
 C         1.304399        -0.029888         0.165270
 C         1.959036         1.080541         1.048800
 C         3.284199         0.433976         0.466365
 C         3.054880        -1.162822         0.394463
 C         3.205568        -1.036381        -1.137751
 C         2.590907         0.240722        -0.828451
 O         2.573485         1.222969        -1.915883
 O         1.669779        -1.354100         0.508576
 H        -0.605033        -0.333147         1.143672
 H        -0.776453         1.000333        -0.031432
 H        -0.454575        -0.858391        -0.483577
 H         1.819171         1.930928         0.461787
 H         1.729139         1.250036         2.078108
 H         4.261013         0.736943         0.776839
 H         3.438535        -2.041964         1.064048
 H         4.259272        -0.887128        -1.488957
 H         2.597837        -1.716245        -1.662119
 H         1.717656         1.641474        -1.759919
