19
Iteration:   235charge 0 multiplicity 1
 C        -0.136845         0.140839        -0.239056
 C         1.336111         0.107762         0.146506
 C         1.989574         0.943711         1.245879
 C         3.320181         0.432912         0.521156
 C         3.091099        -1.224877         0.359817
 C         3.092876        -1.205910        -1.172877
 C         2.521442         0.261032        -0.828454
 O         2.542343         1.162583        -1.902771
 O         1.681948        -1.194540         0.690207
 H        -0.609034        -0.045358         0.701891
 H        -0.477861         1.078849        -0.606319
 H        -0.343259        -0.660740        -0.993341
 H         1.606936         1.998887         1.230179
 H         1.728741         0.649424         2.243352
 H         4.407216         0.845791         0.776610
 H         3.640280        -1.901534         0.959758
 H         4.112850        -1.034375        -1.579341
 H         2.598510        -2.074326        -1.678755
 H         1.709294         1.723217        -1.859898
