19
Iteration:    17
 C        -0.011443         0.158282        -0.267674
 C         1.374973         0.015670         0.134942
 C         1.868777         0.991797         1.279216
 C         3.355050         0.439045         0.453701
 C         3.119716        -1.186019         0.484696
 C         3.076706        -1.162986        -1.097648
 C         2.493491         0.252978        -0.840064
 O         2.512212         1.243466        -2.017565
 O         1.644958        -1.369560         0.727654
 H        -0.648345         0.056599         0.613473
 H        -0.178106         1.209557        -0.522941
 H        -0.314100        -0.489085        -1.141552
 H         1.514127         2.057064         1.430408
 H         1.598168         0.525551         2.261008
 H         4.401552         0.903515         0.283712
 H         3.682893        -1.917790         1.145146
 H         4.092855        -0.953148        -1.760166
 H         2.353881        -2.037232        -1.503354
 H         2.187477         2.083943        -1.744646
