19
Iteration:  4631charge 0 multiplicity 1
 C        -0.098119         0.068763        -0.346046
 C         1.342220        -0.028665         0.128952
 C         2.150124         0.994810         1.157576
 C         3.272333         0.439767         0.367496
 C         3.195719        -1.102715         0.461229
 C         3.194760        -1.151882        -1.102133
 C         2.437628         0.181876        -0.871492
 O         2.276073         1.325226        -1.698283
 O         1.722844        -1.334303         0.790790
 H        -0.852438        -0.087587         0.371830
 H        -0.191357         1.028235        -0.774021
 H        -0.247762        -0.552165        -1.341723
 H         1.912644         2.062721         0.778870
 H         1.876816         0.839285         2.234953
 H         4.128354         1.059109         0.183837
 H         3.765457        -1.727418         1.152885
 H         4.091118        -0.836405        -1.600256
 H         2.657271        -1.970275        -1.649250
 H         1.471804         1.038837        -2.176760
