19
Iteration:  4295charge 0 multiplicity 1
 C        -0.119121         0.034258        -0.351861
 C         1.360412        -0.000445         0.186836
 C         2.094512         1.060350         1.173430
 C         3.337553         0.416149         0.367343
 C         3.247543        -1.156319         0.406103
 C         3.144497        -1.172411        -1.068413
 C         2.486619         0.234098        -0.824002
 O         2.227196         1.341191        -1.744399
 O         1.689680        -1.307390         0.703381
 H        -0.711923        -0.308649         0.566030
 H        -0.358033         1.012807        -0.771240
 H        -0.163571        -0.690594        -1.184696
 H         2.006031         2.154589         1.085874
 H         2.049162         0.824720         2.206158
 H         4.364790         0.862731         0.475422
 H         3.906859        -1.709573         1.201128
 H         4.082861        -1.132238        -1.600270
 H         2.608657        -2.055723        -1.537121
 H         1.445975         1.052083        -2.259799
