19
Iteration:   615charge 0 multiplicity 1
 C        -0.155469         0.166938        -0.148543
 C         1.340384         0.041689         0.095218
 C         2.024648         1.005966         1.111816
 C         3.289638         0.354807         0.484346
 C         3.083709        -1.177696         0.419759
 C         3.175212        -1.111209        -1.144611
 C         2.564308         0.209676        -0.905573
 O         2.380798         1.203456        -1.797328
 O         1.654537        -1.281854         0.695253
 H        -0.781428        -0.176052         0.680006
 H        -0.537128         1.127634        -0.260292
 H        -0.387394        -0.392838        -1.041142
 H         1.846909         2.100299         0.781463
 H         1.850394         0.717434         2.162542
 H         4.283291         0.827964         0.630154
 H         3.655016        -1.929708         0.938302
 H         4.333781        -1.118012        -1.410471
 H         2.593396        -1.969496        -1.716734
 H         3.229366         1.716266        -1.886931
