19
Iteration:  3462
 C        -0.038546         0.107906        -0.353723
 C         1.352312        -0.052851         0.184229
 C         2.060850         0.978790         1.097531
 C         3.295728         0.399608         0.551911
 C         3.160310        -1.167980         0.470887
 C         3.166621        -1.136578        -1.171824
 C         2.519776         0.318805        -0.853873
 O         2.219130         1.303655        -1.860989
 O         1.762800        -1.361649         0.790593
 H        -0.735679        -0.080549         0.391863
 H        -0.253416         1.190954        -0.500396
 H        -0.278522        -0.614446        -1.256844
 H         2.000426         2.009860         0.539642
 H         1.784513         1.024395         2.203464
 H         4.268944         0.626200         0.937630
 H         3.811299        -1.693986         1.251002
 H         4.161813        -0.883821        -1.633201
 H         2.617750        -1.817385        -1.824594
 H         1.237680         1.324464        -1.886163
