19
Iteration:  1472
 C        -0.128881         0.038616        -0.280300
 C         1.259786         0.041659         0.116450
 C         1.940817         1.044977         1.108044
 C         3.254510         0.352670         0.624744
 C         3.070072        -1.252984         0.376681
 C         3.432714        -1.050306        -1.020469
 C         2.590497         0.317865        -0.789940
 O         2.249355         1.283114        -1.850748
 O         1.681304        -1.357203         0.634253
 H        -0.782875        -0.074019         0.488167
 H        -0.463200         0.923406        -0.924739
 H        -0.408262        -0.876161        -0.960041
 H         1.847504         2.081770         0.693779
 H         1.814924         1.140633         2.192276
 H         4.283725         0.685681         0.831867
 H         3.752100        -1.832786         1.013073
 H         4.410051        -0.921792        -1.273347
 H         3.034513        -1.819086        -1.693084
 H         3.102426         1.499731        -2.329717
