19
Iteration:   595
 C        -0.236280         0.204733        -0.241409
 C         1.244340         0.035076         0.168934
 C         2.038301         0.893606         1.247597
 C         3.331233         0.374747         0.454870
 C         3.218149        -1.158150         0.422674
 C         3.135753        -1.188816        -1.072185
 C         2.452839         0.265507        -0.887895
 O         2.483876         1.211859        -1.959871
 O         1.701345        -1.282860         0.716149
 H        -0.910975         0.021772         0.560222
 H        -0.386854         1.242677        -0.388987
 H        -0.552978        -0.327332        -1.163438
 H         1.900256         1.977216         1.010554
 H         1.927134         0.550587         2.275331
 H         4.362706         0.899348         0.310778
 H         3.678146        -1.866695         1.110508
 H         4.087688        -0.898931        -1.657055
 H         2.611099        -2.014505        -1.739820
 H         2.636342         1.958226        -1.339756
