19
Iteration:  4725charge 0 multiplicity 1
 C        -0.227997        -0.013456        -0.010616
 C         1.281231        -0.047614         0.154673
 C         1.965541         0.948450         1.044169
 C         3.247417         0.486311         0.437867
 C         3.135298        -1.137750         0.403500
 C         3.154184        -1.085763        -1.129997
 C         2.563021         0.266883        -0.941655
 O         2.527292         1.295178        -1.831667
 O         1.766457        -1.275217         0.743492
 H        -0.711240        -0.113622         1.039966
 H        -0.574870         0.977580        -0.491547
 H        -0.675893        -0.624889        -0.761915
 H         1.588878         1.898721         0.656759
 H         1.723272         0.775028         2.088392
 H         4.289035         0.804488         0.411185
 H         3.949379        -1.705820         0.972184
 H         4.179891        -0.931473        -1.612386
 H         2.521987        -1.918262        -1.512681
 H         2.121577         1.051628        -2.676230
