19
Iteration:   798charge 0 multiplicity 1
 C        -0.159315        -0.027894        -0.246414
 C         1.335422         0.060300         0.167975
 C         1.958083         0.918741         1.186083
 C         3.282452         0.408884         0.534944
 C         3.075148        -1.122049         0.447794
 C         3.146382        -1.040750        -1.096777
 C         2.528907         0.324907        -0.846283
 O         2.495148         1.155466        -1.941949
 O         1.686153        -1.263576         0.652746
 H        -0.890615        -0.381421         0.566504
 H        -0.466782         0.993251        -0.438371
 H        -0.208280        -0.554294        -1.230427
 H         1.954046         1.957854         1.023711
 H         1.725920         0.695777         2.174209
 H         4.342653         0.815427         0.662038
 H         3.709170        -1.869699         0.969519
 H         4.092100        -0.862946        -1.525381
 H         2.615099        -1.809182        -1.557873
 H         2.747084         2.009393        -1.595911
