19
Iteration:   788charge 0 multiplicity 1
 C        -0.052490         0.035847        -0.213541
 C         1.276034         0.039859         0.136226
 C         1.925381         0.974393         1.190205
 C         3.219553         0.429847         0.581041
 C         3.137176        -1.181847         0.430615
 C         3.112833        -1.102346        -1.152597
 C         2.467554         0.254647        -0.878898
 O         2.553912         1.178020        -1.897940
 O         1.746038        -1.260041         0.651550
 H        -0.778860        -0.464479         0.561829
 H        -0.301347         1.063636        -0.413198
 H        -0.311075        -0.525927        -1.176792
 H         1.824275         2.056799         0.982685
 H         1.570948         0.745655         2.155811
 H         4.161740         1.104879         0.700210
 H         3.628390        -1.875997         1.158499
 H         4.054899        -0.994352        -1.606534
 H         2.562052        -1.757928        -1.678587
 H         2.291692         2.082607        -1.668795
