19
Iteration:  4157
 C        -0.107314        -0.049900        -0.230572
 C         1.279655         0.019487         0.125721
 C         2.048156         1.031277         1.188149
 C         3.324364         0.393651         0.440523
 C         3.156921        -1.114696         0.379310
 C         3.139873        -1.133907        -1.108468
 C         2.487682         0.262166        -0.862769
 O         2.262940         1.240309        -1.714138
 O         1.767458        -1.232367         0.658420
 H        -0.756426        -0.155231         0.630306
 H        -0.420143         0.804032        -0.898922
 H        -0.259725        -0.806807        -0.913132
 H         2.042471         2.155006         0.916414
 H         1.957325         0.976331         2.309834
 H         4.294148         0.953760         0.562969
 H         3.740245        -1.836119         0.933600
 H         4.167274        -0.927605        -1.567086
 H         2.601635        -2.009498        -1.499730
 H         2.715469         1.357338        -2.565342
