19
Iteration:   570
 C        -0.040910         0.168955        -0.209356
 C         1.297927         0.034671         0.255695
 C         2.051532         0.920126         1.236506
 C         3.260163         0.468691         0.473007
 C         3.025405        -1.156960         0.386822
 C         3.098807        -1.134136        -1.135419
 C         2.552028         0.307661        -0.867271
 O         2.519837         1.159192        -1.940173
 O         1.664093        -1.332861         0.669207
 H        -0.762532         0.084605         0.614384
 H        -0.240541         1.148468        -0.539934
 H        -0.235006        -0.528657        -0.967041
 H         1.846417         2.011460         1.033298
 H         2.019914         0.579343         2.291171
 H         4.243189         0.758847         0.649068
 H         3.585288        -1.784406         1.059884
 H         4.139740        -1.055209        -1.666192
 H         2.442346        -1.781487        -1.793961
 H         1.611902         1.566713        -1.834711
