19
Iteration:  1715
 C        -0.150552         0.077662        -0.267643
 C         1.259778        -0.131366         0.162483
 C         1.909458         0.986317         1.019239
 C         3.198672         0.460895         0.486287
 C         3.126740        -1.138179         0.522785
 C         3.347541        -1.089848        -1.110208
 C         2.628973         0.233131        -0.891388
 O         2.370008         1.333239        -1.705229
 O         1.704105        -1.356919         0.660127
 H        -0.820117        -0.306342         0.535479
 H        -0.443848         1.067487        -0.378594
 H        -0.489534        -0.417396        -1.316179
 H         1.534608         1.939544         0.636016
 H         1.530928         0.809429         2.068474
 H         4.166328         1.011556         0.611754
 H         3.675844        -1.827142         1.147784
 H         4.309375        -0.876438        -1.479289
 H         2.861068        -1.799126        -1.783545
 H         3.167689         1.524389        -2.178307
