19
Iteration:  2702
 C        -0.254596        -0.020567        -0.183717
 C         1.272259         0.009883         0.107401
 C         1.921574         0.953545         1.161225
 C         3.277259         0.437553         0.506822
 C         3.181919        -1.187308         0.424950
 C         3.254534        -1.156812        -1.119809
 C         2.529070         0.306727        -0.847736
 O         2.471618         1.321830        -1.824764
 O         1.788117        -1.283897         0.619132
 H        -0.687528         0.081088         0.725609
 H        -0.425545         1.068620        -0.624685
 H        -0.620242        -0.831530        -0.757778
 H         1.744809         1.998313         0.900802
 H         1.665970         0.757240         2.251613
 H         4.197775         0.954066         0.623816
 H         3.854568        -1.904968         0.954532
 H         4.244680        -0.914304        -1.578053
 H         2.719829        -1.917633        -1.761140
 H         1.503063         1.519487        -1.843248
