19
Iteration:  1796charge 0 multiplicity 1
 C        -0.109386         0.063743        -0.373295
 C         1.295569        -0.032177         0.055024
 C         1.944862         0.886268         1.106920
 C         3.256745         0.428565         0.520073
 C         3.142056        -1.077396         0.521496
 C         3.239325        -1.129466        -1.061464
 C         2.518278         0.224713        -0.840302
 O         2.324020         1.354664        -1.712438
 O         1.757121        -1.356083         0.672037
 H        -0.989089         0.169122         0.453791
 H        -0.113285         1.174640        -0.872367
 H        -0.557009        -0.639150        -1.009252
 H         1.578433         1.870612         0.747057
 H         1.586370         0.688649         2.116309
 H         4.232830         0.880154         0.624130
 H         3.932163        -1.650365         1.075863
 H         4.158604        -0.821320        -1.426083
 H         2.837651        -1.843956        -1.720255
 H         3.109253         1.353673        -2.282415
