19
Iteration:  3980
 C        -0.049739         0.104853        -0.281191
 C         1.349476         0.037619         0.119991
 C         2.053978         0.952220         1.137166
 C         3.288883         0.416080         0.475794
 C         3.124021        -1.170319         0.428307
 C         3.154812        -1.070365        -1.176801
 C         2.495378         0.208222        -0.885312
 O         2.137133         1.215352        -1.780898
 O         1.800004        -1.272166         0.807569
 H        -0.891346        -0.148674         0.417575
 H        -0.281607         1.049968        -0.648765
 H        -0.042439        -0.626529        -0.976359
 H         2.043465         2.039034         0.810124
 H         1.915092         0.730757         2.223331
 H         4.237230         0.930780         0.473722
 H         3.709875        -1.835742         1.102757
 H         4.275680        -1.053453        -1.280873
 H         2.637034        -1.873734        -1.827305
 H         2.917313         1.489788        -2.335377
