19
Iteration:   679
 C        -0.087455         0.173456        -0.267023
 C         1.288686         0.045871         0.216528
 C         2.001728         0.907520         1.227868
 C         3.203029         0.449372         0.467778
 C         3.095506        -1.183676         0.426317
 C         3.107874        -1.177700        -1.163785
 C         2.518115         0.224894        -0.921073
 O         2.528120         1.241643        -1.871669
 O         1.738312        -1.289057         0.729589
 H        -0.869923         0.209296         0.612441
 H        -0.089965         1.047734        -0.947099
 H        -0.213916        -0.739772        -0.886523
 H         1.612291         2.003398         1.176940
 H         1.997168         0.598221         2.288064
 H         4.170966         0.973862         0.522340
 H         3.668255        -1.949304         0.966836
 H         4.164333        -0.978748        -1.502252
 H         2.602270        -1.949669        -1.743496
 H         1.699439         1.797613        -1.859501
