19
Iteration:  2494
 C        -0.073641        -0.056227        -0.420225
 C         1.291403        -0.026665         0.141214
 C         2.101058         1.046955         1.166684
 C         3.346209         0.506529         0.575307
 C         3.105929        -1.192529         0.444045
 C         3.251818        -1.072490        -1.140988
 C         2.586005         0.302002        -0.776195
 O         2.230424         1.310302        -1.736859
 O         1.637139        -1.359102         0.660942
 H        -0.711229        -0.203740         0.381480
 H        -0.330039         1.045592        -0.876498
 H        -0.229542        -0.851636        -1.168702
 H         1.927922         2.070860         0.757140
 H         1.912010         1.034504         2.274604
 H         4.416074         0.817370         0.633873
 H         3.755076        -1.888771         1.072799
 H         4.268677        -0.959916        -1.472518
 H         2.759084        -1.759749        -1.725932
 H         1.569101         0.921745        -2.337242
