19
Iteration:  1344
 C        -0.066198         0.096110        -0.456606
 C         1.342827        -0.059664         0.141794
 C         1.954131         0.924611         1.174187
 C         3.263619         0.533262         0.488589
 C         3.150450        -1.183630         0.508656
 C         3.210155        -1.069046        -1.112176
 C         2.497383         0.226352        -0.819769
 O         2.291506         1.267211        -1.770050
 O         1.710917        -1.310656         0.707213
 H        -0.769266        -0.376159         0.353074
 H        -0.237170         1.120198        -0.438365
 H        -0.170222        -0.526890        -1.422414
 H         1.562409         1.965992         1.015831
 H         1.774108         0.590484         2.171917
 H         4.309558         0.949932         0.617363
 H         3.738680        -1.949956         1.010415
 H         4.223256        -0.800373        -1.458880
 H         2.704754        -1.926107        -1.602625
 H         3.115786         1.565786        -2.138395
