19
Iteration:  3143charge 0 multiplicity 1
 C        -0.096687         0.095726        -0.337891
 C         1.347705         0.086847         0.184811
 C         2.111116         1.029756         1.198022
 C         3.369082         0.342929         0.549924
 C         3.223344        -1.189389         0.428686
 C         3.093900        -1.081732        -1.155630
 C         2.474010         0.235159        -0.789924
 O         2.170638         1.126097        -1.831296
 O         1.751868        -1.252980         0.639001
 H        -0.868113        -0.077900         0.341333
 H        -0.225772         1.015120        -0.918625
 H        -0.088343        -0.608511        -1.369370
 H         1.967365         2.096127         0.965971
 H         1.994786         0.825374         2.226456
 H         4.326097         0.838856         0.949464
 H         3.662576        -2.000155         0.935455
 H         4.045952        -0.868453        -1.665520
 H         2.546353        -1.960133        -1.646012
 H         2.132586         2.065734        -1.483291
