19
Iteration:  1068charge 0 multiplicity 1
 C        -0.090528         0.058166        -0.294846
 C         1.289046        -0.034935         0.133564
 C         1.889710         0.962224         1.160095
 C         3.176437         0.510046         0.449842
 C         3.073862        -1.149098         0.416267
 C         3.332808        -1.198377        -1.121889
 C         2.581141         0.279633        -0.905002
 O         2.450012         1.302896        -1.782370
 O         1.679787        -1.344896         0.704688
 H        -0.654004         0.074478         0.650287
 H        -0.168190         0.993768        -1.006124
 H        -0.405234        -0.931673        -0.652727
 H         1.662573         1.960279         0.881204
 H         1.803313         0.663442         2.251939
 H         4.045900         0.992660         0.671465
 H         3.645469        -1.838992         1.098612
 H         4.305333        -1.196391        -1.458998
 H         2.778242        -1.862513        -1.667567
 H         2.406940         2.215563        -1.392062
