19
Iteration:  1509charge 0 multiplicity 1
 C        -0.100842         0.085695        -0.474682
 C         1.343195        -0.041046         0.062758
 C         1.922915         0.884950         1.122431
 C         3.242847         0.477728         0.498032
 C         3.159319        -1.126675         0.443835
 C         3.191442        -1.119544        -1.049380
 C         2.556149         0.258700        -0.818944
 O         2.267579         1.275060        -1.696049
 O         1.746970        -1.261898         0.727338
 H        -0.729628        -0.292173         0.384406
 H        -0.269232         1.066490        -0.657170
 H        -0.117101        -0.536603        -1.363983
 H         1.773514         1.964291         1.027651
 H         1.714779         0.454646         2.103780
 H         4.305735         0.846952         0.580407
 H         3.734125        -1.724550         1.152407
 H         4.313728        -0.939272        -1.433602
 H         2.639880        -2.050162        -1.381491
 H         3.138606         1.498950        -2.122885
