19
Iteration:  2925
 C        -0.190625         0.021780        -0.078255
 C         1.279230        -0.044363         0.143042
 C         1.969713         0.902028         1.142316
 C         3.269896         0.470949         0.483796
 C         3.110729        -1.136232         0.411220
 C         3.181561        -1.050495        -1.083373
 C         2.590717         0.352053        -0.898049
 O         2.446253         1.273965        -1.964854
 O         1.751971        -1.383704         0.681848
 H        -0.710873        -0.290143         0.708844
 H        -0.571781         1.009799        -0.327508
 H        -0.401478        -0.624333        -1.062661
 H         1.828194         2.032522         0.941319
 H         1.582884         0.570417         2.120808
 H         4.344700         0.934205         0.633056
 H         3.607910        -1.916587         1.051193
 H         4.164238        -1.089180        -1.531591
 H         2.488282        -1.706912        -1.615464
 H         2.493725         2.176741        -1.651056
