19
Iteration:  1023charge 0 multiplicity 1
 C        -0.112385         0.038291        -0.368709
 C         1.338370         0.039594         0.166512
 C         1.903664         1.005869         1.283818
 C         3.272561         0.393864         0.679385
 C         3.074012        -1.182752         0.369370
 C         3.241045        -1.035455        -1.156328
 C         2.601926         0.323576        -0.791386
 O         2.379110         1.141087        -1.959402
 O         1.726542        -1.303043         0.662290
 H        -0.811078        -0.329113         0.373153
 H        -0.241187         1.144626        -0.762844
 H        -0.253311        -0.645613        -1.212886
 H         1.826914         2.034150         0.970131
 H         1.572393         0.822013         2.341102
 H         4.228575         0.784933         0.799202
 H         3.719389        -1.885909         0.936795
 H         4.266346        -1.011501        -1.380126
 H         2.775715        -1.721497        -1.755101
 H         1.924858         1.931743        -1.556967
