19
Iteration:  1110
 C        -0.151691        -0.027520        -0.231373
 C         1.270736         0.036295         0.124671
 C         1.969547         0.986534         1.236719
 C         3.205254         0.474546         0.552165
 C         3.128899        -1.181060         0.421310
 C         3.266893        -0.996836        -1.092474
 C         2.550738         0.260740        -0.817408
 O         2.461750         1.182622        -1.884718
 O         1.627231        -1.304873         0.550216
 H        -0.845937        -0.059674         0.607935
 H        -0.573069         0.851777        -0.926898
 H        -0.288032        -1.001992        -0.718346
 H         1.790923         1.959531         0.883548
 H         1.868478         0.801313         2.301512
 H         4.179478         0.870031         0.707218
 H         3.700723        -1.839700         1.115967
 H         4.283881        -0.726055        -1.375996
 H         2.879893        -1.803988        -1.649907
 H         3.216103         1.803243        -1.729511
