19
Iteration:  2351charge 0 multiplicity 1
 C        -0.150260         0.091095        -0.346320
 C         1.301513        -0.088905         0.157441
 C         1.845910         0.936717         1.099406
 C         3.250231         0.448842         0.488861
 C         3.256991        -1.142580         0.469387
 C         3.212232        -1.093181        -1.157863
 C         2.542081         0.232225        -0.832651
 O         2.416196         1.303308        -1.667347
 O         1.769253        -1.316716         0.711895
 H        -0.769834         0.115982         0.428181
 H        -0.215401         1.138797        -0.847677
 H        -0.504087        -0.683566        -1.127540
 H         1.516524         1.984192         0.743120
 H         1.720976         0.855704         2.195083
 H         4.242039         1.021837         0.395242
 H         3.844518        -1.864622         1.012475
 H         4.114866        -0.840895        -1.630792
 H         2.680283        -1.735835        -1.817212
 H         1.832937         1.142913        -2.394439
