19
Iteration:  1943
 C        -0.107546        -0.002222        -0.279450
 C         1.300022         0.029019         0.099319
 C         1.978602         0.976321         1.089676
 C         3.289834         0.457615         0.566097
 C         3.092628        -1.205993         0.493458
 C         3.305423        -1.064044        -1.045388
 C         2.545291         0.251580        -0.848295
 O         2.297171         1.347863        -1.766098
 O         1.688008        -1.300035         0.583229
 H        -0.648795        -0.238190         0.654161
 H        -0.539544         0.889009        -0.584611
 H        -0.447056        -0.979517        -1.018160
 H         1.611737         1.940754         0.859514
 H         1.790184         0.829177         2.159085
 H         4.370059         0.642155         0.527189
 H         3.535691        -2.016605         1.055224
 H         4.398314        -0.904514        -1.179097
 H         2.963745        -1.812590        -1.771794
 H         2.873000         1.120894        -2.484548
