19
Iteration:  1002
 C        -0.031536         0.043652        -0.304226
 C         1.375375         0.027441         0.146344
 C         1.976612         0.852788         1.154190
 C         3.281188         0.494014         0.591850
 C         3.072174        -1.159444         0.497798
 C         3.239126        -0.998813        -1.076628
 C         2.526172         0.322766        -0.808562
 O         2.429559         1.178777        -1.959951
 O         1.600084        -1.306188         0.618567
 H        -0.535906        -0.577222         0.435873
 H        -0.437514         1.122748        -0.427162
 H        -0.203229        -0.467827        -1.250453
 H         1.773594         1.922995         1.069748
 H         1.755734         0.500615         2.238002
 H         4.194226         0.795192         0.900123
 H         3.602627        -1.915581         1.135744
 H         4.224519        -0.863157        -1.424311
 H         2.714968        -1.707378        -1.668861
 H         1.697153         1.772048        -1.769225
