19
Iteration:  1251charge 0 multiplicity 1
 C        -0.169795         0.015707        -0.278781
 C         1.278498        -0.101737         0.151928
 C         1.901214         0.891899         1.052099
 C         3.259745         0.393957         0.545511
 C         3.153270        -1.152573         0.471278
 C         3.210537        -0.943817        -1.066004
 C         2.560556         0.313461        -0.876604
 O         2.411307         1.290939        -1.801328
 O         1.710400        -1.329729         0.663570
 H        -0.798292         0.173656         0.503791
 H        -0.357872         0.981733        -0.800034
 H        -0.553200        -0.805392        -0.773172
 H         1.824775         1.826395         0.480796
 H         1.662367         1.118036         2.115536
 H         4.158918         1.006904         0.709920
 H         3.742538        -1.964164         0.965196
 H         4.406773        -0.819419        -1.154837
 H         2.798105        -1.852435        -1.582788
 H         3.361141         1.482608        -2.057970
