19
Iteration:  4996
 C        -0.172484         0.119048        -0.195933
 C         1.300432         0.007494         0.165066
 C         2.015944         0.937103         1.239449
 C         3.213922         0.484285         0.443397
 C         3.121630        -1.101592         0.439309
 C         3.224071        -1.117745        -1.146624
 C         2.513606         0.214170        -0.937265
 O         2.403969         1.182260        -1.948216
 O         1.821727        -1.306382         0.766159
 H        -0.763996        -0.092632         0.739828
 H        -0.459849         1.142744        -0.492237
 H        -0.465618        -0.648481        -0.847012
 H         1.757571         2.021970         1.182616
 H         2.181448         0.611419         2.322171
 H         4.032567         1.168149         0.411472
 H         3.709482        -1.731847         1.154520
 H         4.139684        -0.899041        -1.722456
 H         2.705085        -2.009820        -1.553384
 H         1.483036         1.440137        -2.180922
