19
Iteration:  4591
 C        -0.075655        -0.021127        -0.217777
 C         1.351906         0.044198         0.102538
 C         2.000333         0.934656         1.173812
 C         3.258678         0.395870         0.512235
 C         3.167454        -1.176939         0.409277
 C         3.116885        -1.042351        -1.145368
 C         2.540409         0.312093        -0.849398
 O         2.367952         1.278722        -1.875414
 O         1.710014        -1.246665         0.754789
 H        -0.500210        -0.399436         0.773190
 H        -0.610898         0.913869        -0.496582
 H        -0.143777        -0.848299        -0.915219
 H         2.075947         1.994379         0.925499
 H         1.891857         0.917844         2.249231
 H         4.256857         0.868055         0.497560
 H         3.758633        -1.921657         0.838613
 H         4.100689        -0.917994        -1.628005
 H         2.439825        -1.821197        -1.469274
 H         1.692770         0.886213        -2.472460
