19
Iteration:  2056charge 0 multiplicity 1
 C        -0.248325        -0.035269        -0.123101
 C         1.234339        -0.016481         0.170506
 C         1.870168         0.937945         1.114447
 C         3.243387         0.475409         0.511944
 C         3.137978        -1.131330         0.454444
 C         3.234571        -1.053175        -1.105805
 C         2.598128         0.273349        -0.896477
 O         2.605587         1.283694        -1.849408
 O         1.718475        -1.309975         0.606741
 H        -0.871437        -0.331443         0.655929
 H        -0.356784         1.079284        -0.424600
 H        -0.530703        -0.771055        -1.011174
 H         1.730521         1.960924         0.764738
 H         1.712118         0.833639         2.176701
 H         4.264106         0.776458         0.739919
 H         3.758134        -1.866624         1.048717
 H         4.306013        -0.751196        -1.413008
 H         2.790169        -1.848761        -1.779823
 H         1.706042         1.468314        -2.193480
