19
Iteration:  1195charge 0 multiplicity 1
 C        -0.110342        -0.026399        -0.428568
 C         1.348430         0.021629         0.101787
 C         2.037292         0.963171         1.138123
 C         3.333699         0.404083         0.566811
 C         3.058800        -1.155640         0.542132
 C         3.236704        -1.008128        -1.075007
 C         2.552563         0.296095        -0.818033
 O         2.237642         1.281236        -1.837510
 O         1.641335        -1.335839         0.680972
 H        -0.686795        -0.474876         0.308576
 H        -0.395846         0.982327        -0.657733
 H        -0.033744        -0.519356        -1.344634
 H         1.849682         2.078215         1.031151
 H         1.829019         0.713695         2.189934
 H         4.408676         0.802777         0.696575
 H         3.620405        -1.807774         1.241326
 H         4.392652        -0.832786        -1.214815
 H         2.912880        -1.954791        -1.615170
 H         3.065892         1.483071        -2.262159
