19
Iteration:  2346
 C        -0.122047         0.079409        -0.417561
 C         1.308335        -0.115264         0.114708
 C         1.875670         0.924358         1.135981
 C         3.328195         0.428451         0.493944
 C         3.265037        -1.075542         0.443676
 C         3.204513        -1.062374        -1.125066
 C         2.519308         0.203562        -0.803849
 O         2.373788         1.301658        -1.693854
 O         1.734123        -1.315040         0.736857
 H        -0.833306         0.161787         0.580773
 H        -0.177235         1.025938        -0.854115
 H        -0.422657        -0.613730        -1.169124
 H         1.628024         1.940290         0.902373
 H         1.755721         0.852580         2.222809
 H         4.237745         0.961873         0.609251
 H         3.712579        -1.866190         1.083096
 H         4.158884        -0.882120        -1.736566
 H         2.452908        -1.666756        -1.749506
 H         1.747283         1.239622        -2.473950
