19
Iteration:  1676charge 0 multiplicity 1
 C        -0.078962         0.018395        -0.434461
 C         1.335954         0.037766         0.150359
 C         1.927309         0.941790         1.223832
 C         3.279240         0.470619         0.570861
 C         3.146330        -1.189865         0.493374
 C         3.282095        -1.070677        -1.126121
 C         2.561968         0.223460        -0.830246
 O         2.237237         1.243108        -1.777446
 O         1.695381        -1.262478         0.637086
 H        -0.982056        -0.368382         0.192816
 H        -0.337988         1.098652        -0.828520
 H         0.001083        -0.581560        -1.257702
 H         1.734910         1.985847         1.014496
 H         1.892883         0.662426         2.272795
 H         4.257061         0.870156         0.690490
 H         3.620898        -1.925466         1.175205
 H         4.353753        -0.996858        -1.614406
 H         2.614455        -1.829916        -1.602228
 H         2.994653         1.750899        -2.169233
