19
Iteration:  2931
 C        -0.131277        -0.038411        -0.117988
 C         1.325810        -0.011243         0.186599
 C         1.957272         0.946202         1.158894
 C         3.285020         0.452402         0.484361
 C         3.115863        -1.130173         0.388163
 C         3.162142        -1.037157        -1.099076
 C         2.571910         0.332091        -0.851627
 O         2.419130         1.239035        -1.953049
 O         1.702603        -1.339148         0.647730
 H        -0.920551        -0.393099         0.742924
 H        -0.520371         0.970761        -0.533165
 H        -0.318522        -0.508602        -1.027767
 H         1.921322         2.003085         1.145685
 H         1.814704         0.618881         2.209690
 H         4.207247         0.911154         0.684182
 H         3.686309        -1.913274         0.873674
 H         4.237062        -1.144190        -1.487063
 H         2.515442        -1.777108        -1.608809
 H         2.517434         2.200057        -1.719382
