19
Iteration:  2253
 C        -0.172286         0.036725        -0.106017
 C         1.273450        -0.127853         0.101276
 C         1.861733         0.916005         1.041767
 C         3.150987         0.526470         0.431842
 C         3.149934        -1.072045         0.457231
 C         3.257485        -1.118406        -1.081458
 C         2.510055         0.210374        -0.950591
 O         2.621788         1.369279        -1.712356
 O         1.715878        -1.365138         0.606517
 H        -0.551708        -0.343838         0.772564
 H        -0.555761         1.161426        -0.123581
 H        -0.505360        -0.535281        -1.064949
 H         1.670863         2.003093         0.860691
 H         1.808201         0.882317         2.108010
 H         4.163747         0.966863         0.681593
 H         3.809944        -1.498738         1.158681
 H         4.263687        -1.057234        -1.368694
 H         2.796489        -1.929193        -1.590252
 H         1.855528         1.360745        -2.278620
