19
Iteration:  1542
 C        -0.071859        -0.021777        -0.370152
 C         1.298353        -0.040413         0.211550
 C         1.989758         0.940609         1.217128
 C         3.216020         0.466684         0.592405
 C         3.096688        -1.118874         0.426312
 C         3.131618        -1.008681        -1.067549
 C         2.522775         0.338228        -0.808031
 O         2.406367         1.228644        -1.944093
 O         1.722104        -1.318466         0.658277
 H        -0.934179        -0.480749         0.236017
 H        -0.346002         0.905579        -0.734628
 H        -0.091730        -0.732311        -1.237721
 H         1.793800         1.987150         1.008596
 H         1.717010         0.770987         2.268484
 H         4.269767         0.718572         0.865429
 H         3.636452        -1.852371         1.027743
 H         4.240714        -0.888562        -1.524021
 H         2.747960        -1.912116        -1.609614
 H         3.231264         1.786881        -1.953537
