19
Iteration:  4105charge 0 multiplicity 1
 C        -0.064878         0.118318        -0.271644
 C         1.324229        -0.017962         0.149901
 C         2.004594         0.953261         1.167328
 C         3.353545         0.434152         0.495842
 C         3.236205        -1.133279         0.424269
 C         3.170919        -1.136333        -1.167871
 C         2.499227         0.233136        -0.828881
 O         2.131857         1.208084        -1.870723
 O         1.765791        -1.278591         0.789056
 H        -0.823371        -0.157969         0.390433
 H        -0.237749         1.168649        -0.604447
 H        -0.256097        -0.436859        -1.275186
 H         1.580025         1.951668         1.034259
 H         1.764626         0.733792         2.253857
 H         4.327783         0.946851         0.602417
 H         3.895461        -1.760828         0.969561
 H         4.178990        -1.172479        -1.734482
 H         2.551487        -1.828846        -1.731992
 H         2.890591         1.797541        -2.025106
