19
Iteration:  4455
 C        -0.077167         0.057391        -0.416816
 C         1.313968         0.023614         0.159137
 C         2.107924         0.907299         1.204579
 C         3.249057         0.453788         0.394926
 C         3.167053        -1.137683         0.466946
 C         3.153530        -1.206899        -1.171745
 C         2.481488         0.179773        -0.846476
 O         2.256104         1.344389        -1.761208
 O         1.800814        -1.206094         0.806486
 H        -0.820843        -0.260148         0.340330
 H        -0.412041         1.114799        -0.603773
 H        -0.245331        -0.757312        -1.296762
 H         2.020789         2.030471         1.072375
 H         2.028482         0.657588         2.325056
 H         4.226742         0.885192         0.623989
 H         3.935271        -1.751998         1.115255
 H         4.187726        -1.178156        -1.550645
 H         2.537481        -1.942858        -1.768246
 H         1.410395         1.203024        -2.267558
