19
Iteration:  3902charge 0 multiplicity 1
 C        -0.246647         0.018896        -0.085688
 C         1.271176         0.004168         0.199721
 C         1.990315         0.966730         1.106106
 C         3.273893         0.426532         0.427974
 C         3.139403        -1.105732         0.397317
 C         3.137166        -1.060521        -1.130550
 C         2.490471         0.275608        -0.909135
 O         2.449351         1.252510        -1.888669
 O         1.802507        -1.337392         0.739630
 H        -0.773292         0.002571         0.902463
 H        -0.436893         1.005271        -0.494424
 H        -0.600586        -0.682029        -0.756666
 H         1.846098         2.027443         0.830760
 H         1.886071         0.706834         2.239027
 H         4.310943         0.745966         0.527674
 H         3.846639        -1.702446         0.999756
 H         4.165613        -0.795524        -1.451571
 H         2.459608        -1.769724        -1.713342
 H         3.122507         1.044888        -2.573476
