19
Iteration:  4140
 C        -0.048539        -0.026978        -0.358383
 C         1.386420         0.085098         0.235025
 C         2.133686         1.043558         1.171702
 C         3.372935         0.439582         0.495625
 C         3.174191        -1.166537         0.446724
 C         3.168271        -1.106175        -1.183842
 C         2.448523         0.214960        -0.791782
 O         2.117266         1.274082        -1.769663
 O         1.668285        -1.271958         0.698666
 H        -0.795124        -0.275598         0.434063
 H        -0.325952         0.856526        -0.895230
 H         0.068516        -0.942332        -1.130786
 H         1.876003         2.012779         0.841188
 H         1.915791         0.749914         2.197595
 H         4.389535         0.744973         0.328828
 H         3.691308        -1.897627         1.071387
 H         4.172420        -0.852298        -1.510254
 H         2.510252        -1.807834        -1.735719
 H         2.817949         1.116227        -2.440776
