19
Iteration:  3163charge 0 multiplicity 1
 C        -0.022219         0.091686        -0.246375
 C         1.347579        -0.025464         0.256730
 C         2.039885         0.944598         1.246498
 C         3.322640         0.476352         0.508791
 C         3.097589        -1.147159         0.355695
 C         3.080148        -1.036474        -1.147040
 C         2.505355         0.299319        -0.819376
 O         2.350448         1.155450        -1.950492
 O         1.705430        -1.342414         0.699882
 H        -0.718850         0.046204         0.599581
 H        -0.215046         1.029968        -0.834892
 H        -0.148137        -0.713607        -1.013713
 H         2.099333         2.053705         0.916863
 H         1.767177         0.811828         2.378578
 H         4.414016         0.826297         0.409563
 H         3.641552        -1.813369         0.965987
 H         4.084010        -1.111875        -1.616701
 H         2.438703        -1.766737        -1.743816
 H         1.818873         1.921588        -1.716580
