19
Iteration:  1682
 C        -0.140654         0.078705        -0.464505
 C         1.327336         0.017903         0.179757
 C         1.949095         0.974823         1.152214
 C         3.252881         0.426200         0.583591
 C         3.160292        -1.181097         0.485292
 C         3.266572        -1.097010        -1.093456
 C         2.536771         0.208862        -0.833484
 O         2.248011         1.274644        -1.764246
 O         1.760240        -1.299578         0.655099
 H        -0.767293        -0.370786         0.294989
 H        -0.270238         1.072526        -0.631121
 H        -0.081017        -0.672387        -1.405935
 H         1.701497         2.027480         0.908670
 H         1.624171         0.720543         2.208575
 H         4.265488         0.914942         0.727120
 H         3.705919        -1.925015         1.054407
 H         4.180318        -0.865967        -1.501271
 H         2.777618        -1.863382        -1.690403
 H         3.023782         1.753097        -2.131706
