19
Iteration:  1583
 C        -0.242670         0.019643        -0.191185
 C         1.292113        -0.051245         0.067651
 C         1.886750         0.946507         1.119387
 C         3.227301         0.377168         0.539853
 C         3.136704        -1.092067         0.463785
 C         3.385796        -1.152564        -1.007796
 C         2.589965         0.272329        -0.989910
 O         2.364890         1.374026        -1.776606
 O         1.688898        -1.297110         0.581539
 H        -0.681705        -0.085422         0.789708
 H        -0.374516         1.011019        -0.601331
 H        -0.488400        -0.963585        -0.879695
 H         1.649600         1.978056         0.702572
 H         1.703680         0.888646         2.205606
 H         4.244129         0.770919         0.922280
 H         3.732718        -1.840993         1.014921
 H         4.382555        -1.005693        -1.178650
 H         3.018583        -2.016624        -1.534952
 H         3.160400         1.732320        -2.152426
