19
Iteration:  4748charge 0 multiplicity 1
 C        -0.131407         0.014572        -0.126856
 C         1.331568        -0.035079         0.193886
 C         2.013061         1.151592         1.075340
 C         3.274421         0.440157         0.473523
 C         3.164593        -1.166240         0.516099
 C         3.150333        -1.155705        -1.185763
 C         2.504061         0.207129        -0.899742
 O         2.381243         1.331999        -1.802861
 O         1.751935        -1.338045         0.683722
 H        -0.644964        -0.282357         0.831599
 H        -0.557413         0.925060        -0.553361
 H        -0.362637        -0.725975        -0.915600
 H         1.716622         2.043703         0.582851
 H         1.834752         1.144388         2.112906
 H         4.273386         0.876684         0.529663
 H         3.774323        -1.956775         1.039413
 H         4.103096        -0.922776        -1.688966
 H         2.523049        -1.936401        -1.718162
 H         2.061167         0.991575        -2.670221
