19
Iteration:  1958
 C        -0.129554         0.009795        -0.344889
 C         1.318352        -0.040688         0.102630
 C         1.977417         0.924255         1.238487
 C         3.264631         0.433932         0.514449
 C         3.134359        -1.074856         0.463407
 C         3.197305        -1.071324        -1.072773
 C         2.559001         0.302602        -0.871298
 O         2.320020         1.293905        -1.812078
 O         1.708451        -1.344953         0.663650
 H        -0.898259        -0.143005         0.403479
 H        -0.266706         1.000727        -0.896648
 H        -0.327664        -0.734063        -1.075373
 H         1.960822         2.030546         1.036826
 H         1.792051         0.580338         2.266727
 H         4.152551         0.960154         0.809420
 H         3.825623        -1.695005         1.137498
 H         4.270842        -0.950274        -1.524721
 H         2.594622        -1.931894        -1.531772
 H         3.102229         1.428752        -2.414135
