19
Iteration:  1654charge 0 multiplicity 1
 C        -0.040075        -0.067110        -0.490889
 C         1.363594         0.052285         0.144338
 C         2.048983         0.900945         1.307657
 C         3.290287         0.473733         0.602551
 C         3.047475        -1.092491         0.453513
 C         3.163515        -1.019128        -1.029252
 C         2.564452         0.307732        -0.824413
 O         2.266634         1.245551        -1.886910
 O         1.652977        -1.314613         0.618552
 H        -0.684405        -0.197840         0.504673
 H        -0.346634         0.963542        -0.942709
 H        -0.129693        -0.891687        -1.052312
 H         1.870081         1.953677         1.306590
 H         1.872412         0.344615         2.247914
 H         4.283067         0.727644         0.827091
 H         3.708908        -1.757530         1.030361
 H         4.382392        -0.885988        -1.218960
 H         2.647311        -1.791566        -1.672842
 H         2.939809         1.506386        -2.505474
