19
Iteration:  4192
 C        -0.193482         0.008652         0.015435
 C         1.297870        -0.080792         0.154431
 C         1.918388         0.935162         1.114113
 C         3.191160         0.445659         0.423513
 C         3.167007        -1.105777         0.361033
 C         3.196008        -1.040475        -1.123449
 C         2.578186         0.302758        -0.932756
 O         2.421282         1.252650        -1.940430
 O         1.732096        -1.337445         0.746107
 H        -0.682131         0.086124         0.911957
 H        -0.178308         1.006366        -0.405120
 H        -0.620434        -0.786569        -0.582365
 H         1.674084         1.898892         0.631737
 H         1.817127         0.834507         2.256332
 H         4.177431         0.842124         0.659227
 H         3.779840        -1.762942         0.897501
 H         4.307155        -0.841257        -1.368517
 H         2.716840        -1.799142        -1.739342
 H         3.214341         1.824634        -2.110752
