19
Iteration:  2567charge 0 multiplicity 1
 C        -0.199758        -0.027220        -0.025568
 C         1.253432        -0.071562         0.168594
 C         1.942495         1.012813         1.095590
 C         3.254900         0.465471         0.524013
 C         3.088881        -1.160878         0.389876
 C         3.352522        -1.053434        -1.101053
 C         2.613350         0.324445        -0.941487
 O         2.521199         1.328315        -1.803961
 O         1.625427        -1.361241         0.578000
 H        -0.817045        -0.348107         0.948751
 H        -0.594060         0.809551        -0.393469
 H        -0.620223        -0.842357        -0.698139
 H         1.657547         1.933798         0.543000
 H         1.623479         1.067200         2.120679
 H         4.182725         1.052866         0.768894
 H         3.590985        -1.895428         1.012995
 H         4.411439        -0.750249        -1.337839
 H         3.036261        -1.962103        -1.818070
 H         2.046444         1.122892        -2.657482
