19
Iteration:  1946charge 0 multiplicity 1
 C        -0.125328        -0.007299        -0.304583
 C         1.304530        -0.001449         0.098043
 C         2.000590         0.969252         1.111854
 C         3.273542         0.455801         0.571499
 C         3.096054        -1.176066         0.484598
 C         3.250808        -1.059176        -1.026444
 C         2.544156         0.263311        -0.868495
 O         2.303485         1.338162        -1.774766
 O         1.709029        -1.312903         0.594556
 H        -0.590646        -0.165771         0.598315
 H        -0.504091         0.964933        -0.669412
 H        -0.370655        -0.885907        -1.017458
 H         1.634340         1.988502         0.986255
 H         1.812908         0.758346         2.183476
 H         4.317498         0.635613         0.568096
 H         3.675375        -1.944191         1.138105
 H         4.424093        -0.921085        -1.194042
 H         2.865516        -1.851535        -1.778586
 H         2.922896         1.224906        -2.533392
