19
Iteration:  4955
 C        -0.078020         0.055363        -0.299105
 C         1.334635         0.042687         0.175201
 C         2.096440         1.108420         1.173437
 C         3.317979         0.481609         0.476782
 C         3.110204        -1.191131         0.442531
 C         3.250032        -1.026432        -1.148212
 C         2.550502         0.219738        -0.827103
 O         2.171523         1.103157        -1.851186
 O         1.737775        -1.319050         0.678813
 H        -0.584077        -0.135546         0.670587
 H        -0.512907         0.928046        -0.770568
 H        -0.333736        -0.780865        -1.051458
 H         2.177104         2.147419         0.696955
 H         1.749806         1.170570         2.261334
 H         4.338227         0.659017         0.645300
 H         3.686706        -1.939820         1.008365
 H         4.216051        -1.153563        -1.546289
 H         2.608318        -1.877271        -1.617476
 H         1.650991         1.683792        -1.270613
