19
Iteration:  3242
 C        -0.247876         0.008098         0.022410
 C         1.263886         0.015529         0.151723
 C         2.025517         0.980395         1.061067
 C         3.285130         0.391188         0.602270
 C         3.112943        -1.195589         0.371352
 C         3.219356        -1.074283        -1.154202
 C         2.616720         0.278684        -0.967343
 O         2.507285         1.276503        -1.958565
 O         1.664180        -1.290892         0.684456
 H        -0.578116        -0.354271         0.907519
 H        -0.464368         1.021763        -0.123088
 H        -0.802763        -0.642613        -0.838898
 H         1.982232         2.100238         0.810759
 H         1.789754         0.912607         2.167334
 H         4.303327         0.751011         0.656347
 H         3.660670        -1.881202         1.012438
 H         4.282531        -0.940877        -1.378788
 H         2.628643        -1.809828        -1.766094
 H         1.680577         1.757177        -1.923594
