19
Iteration:  2828charge 0 multiplicity 1
 C        -0.033769         0.050317        -0.385138
 C         1.345080         0.011644         0.191533
 C         2.040901         0.931132         1.253434
 C         3.294692         0.475727         0.510486
 C         3.159070        -1.174874         0.356195
 C         3.107950        -1.019818        -1.136656
 C         2.420480         0.255389        -0.811499
 O         2.341850         1.169017        -1.836183
 O         1.748971        -1.297463         0.715231
 H        -0.952539        -0.039658         0.398519
 H        -0.165337         0.994466        -0.868592
 H        -0.195795        -0.780382        -1.197531
 H         1.953500         2.062447         1.150095
 H         1.875036         0.540251         2.262908
 H         4.314021         0.995586         0.492680
 H         3.936894        -1.741523         0.923572
 H         3.999898        -0.805082        -1.621273
 H         2.564862        -1.863777        -1.548751
 H         1.732218         1.866759        -1.600885
