19
Iteration:   452
 C        -0.116997         0.101768        -0.182695
 C         1.332044         0.033650         0.180637
 C         2.148051         0.947129         1.229384
 C         3.358502         0.382943         0.469833
 C         2.932337        -1.125957         0.455282
 C         3.171468        -1.050781        -1.093129
 C         2.530558         0.253634        -0.842840
 O         2.466479         1.265816        -1.900831
 O         1.557653        -1.290759         0.608091
 H        -0.635301        -0.154866         0.801910
 H        -0.540993         1.003346        -0.614776
 H        -0.090847        -0.794737        -0.928944
 H         1.932500         2.039901         0.995403
 H         2.107232         0.508035         2.227216
 H         4.457627         0.625781         0.503714
 H         3.438548        -1.693467         1.183256
 H         4.238150        -1.086333        -1.397654
 H         2.642377        -1.682486        -1.866067
 H         2.315160         0.667609        -2.623883
