19
Iteration:    88charge 0 multiplicity 1
 C        -0.198345         0.084116        -0.184050
 C         1.323854        -0.012863         0.109564
 C         2.043535         1.006073         1.079843
 C         3.368249         0.388596         0.548725
 C         3.079681        -1.153885         0.500850
 C         3.240504        -1.204019        -1.120623
 C         2.637457         0.259667        -0.950920
 O         2.445296         1.268963        -1.855897
 O         1.560760        -1.249457         0.645100
 H        -0.794083        -0.094285         0.777972
 H        -0.449913         1.162967        -0.485145
 H        -0.558491        -0.600028        -0.986898
 H         1.818874         2.058967         0.861086
 H         1.708106         0.837416         2.121593
 H         4.406564         0.534089         0.757388
 H         3.607079        -1.809614         1.226942
 H         4.227767        -1.212947        -1.356046
 H         2.737942        -1.924841        -1.660912
 H         1.791532         1.857243        -1.499080
