19
Iteration:  1006
 C         0.008686         0.038279        -0.300488
 C         1.374968        -0.002731         0.146444
 C         1.944390         0.888011         1.170851
 C         3.274777         0.476665         0.591668
 C         3.080556        -1.169350         0.501238
 C         3.219034        -0.974296        -1.077362
 C         2.553675         0.315329        -0.854111
 O         2.418192         1.157170        -1.945011
 O         1.598597        -1.286332         0.622427
 H        -0.602170        -0.464506         0.513811
 H        -0.389969         0.955411        -0.416697
 H        -0.125192        -0.438997        -1.282146
 H         1.686948         1.977097         1.159359
 H         1.728304         0.582920         2.222490
 H         4.339232         0.733037         1.049471
 H         3.554586        -1.991261         1.051715
 H         4.300335        -0.771204        -1.441733
 H         2.590526        -1.694885        -1.831732
 H         1.705340         1.847692        -1.815062
