19
Iteration:  3557charge 0 multiplicity 1
 C        -0.284248        -0.024426         0.022716
 C         1.232096        -0.027103         0.124334
 C         1.960878         1.035201         1.086154
 C         3.240338         0.384827         0.369147
 C         3.216214        -1.102884         0.358944
 C         3.262475        -1.119331        -1.078594
 C         2.438980         0.237014        -0.921725
 O         2.533678         1.314258        -1.752648
 O         1.739724        -1.265145         0.609614
 H        -0.726373        -0.169971         1.049664
 H        -0.606177         0.926102        -0.289832
 H        -0.687095        -0.890845        -0.586059
 H         2.047781         2.133979         0.862496
 H         1.845711         0.945497         2.168074
 H         4.188232         0.894214         0.387430
 H         3.743711        -1.722685         1.078683
 H         4.277843        -0.893811        -1.517513
 H         2.806629        -2.014077        -1.529744
 H         2.463897         0.944575        -2.674844
