19
Iteration:   310charge 0 multiplicity 1
 C        -0.142145         0.263438        -0.226026
 C         1.274855        -0.076329         0.101955
 C         2.002516         0.932803         1.105860
 C         3.334085         0.436437         0.442437
 C         3.108953        -1.097074         0.442279
 C         3.132500        -1.236761        -1.139291
 C         2.497722         0.164304        -0.888369
 O         2.507579         1.338362        -1.706830
 O         1.689594        -1.353893         0.719326
 H        -0.725878         0.201688         0.806480
 H        -0.230081         1.325164        -0.527571
 H        -0.644475        -0.355272        -1.097018
 H         1.862258         1.962170         0.668694
 H         1.748382         0.810289         2.174612
 H         4.418311         0.864634         0.564499
 H         3.731320        -1.673428         1.140852
 H         3.966088        -1.152325        -1.709717
 H         2.556191        -2.016479        -1.500816
 H         2.192943         1.170700        -2.585121
