19
Iteration:  2605charge 0 multiplicity 1
 C        -0.225006         0.009544        -0.165456
 C         1.285044        -0.019823         0.147558
 C         1.916630         0.921603         1.178627
 C         3.258173         0.513233         0.503554
 C         3.169355        -1.119862         0.407846
 C         3.299737        -1.094684        -1.143245
 C         2.593886         0.239480        -0.889331
 O         2.379616         1.285057        -1.801427
 O         1.683848        -1.298929         0.622999
 H        -0.706270        -0.303960         0.696375
 H        -0.604143         1.124564        -0.351483
 H        -0.331242        -0.655404        -0.989686
 H         1.796549         1.985732         0.948754
 H         1.807731         0.788345         2.297208
 H         4.243848         0.889757         0.689437
 H         3.690012        -1.908070         0.993849
 H         4.314213        -0.894079        -1.420811
 H         2.880739        -1.862626        -1.640809
 H         2.841538         1.199735        -2.648995
