19
Iteration:  1129charge 0 multiplicity 1
 C        -0.152163         0.014987        -0.265516
 C         1.252513        -0.016053         0.183798
 C         1.893480         0.911140         1.222477
 C         3.262992         0.468293         0.508062
 C         3.063866        -1.120312         0.464886
 C         3.335925        -1.161396        -1.074800
 C         2.580306         0.323382        -0.927791
 O         2.400499         1.303652        -1.896886
 O         1.692344        -1.304008         0.639288
 H        -0.930529        -0.056555         0.472254
 H        -0.442817         0.991952        -0.638573
 H        -0.322323        -0.683201        -1.065691
 H         1.601668         2.024139         1.313313
 H         1.737438         0.512509         2.224995
 H         4.310421         0.983936         0.716681
 H         3.603858        -1.800658         1.126628
 H         4.506235        -1.075284        -1.248143
 H         2.823468        -2.011340        -1.717590
 H         3.304893         1.614862        -2.206086
