19
Iteration:  1567
 C        -0.191509        -0.046881        -0.243719
 C         1.279857         0.059854         0.072142
 C         1.932074         0.986637         1.130988
 C         3.249598         0.470429         0.594968
 C         3.093611        -1.199208         0.441181
 C         3.342156        -1.051135        -1.121847
 C         2.591082         0.243082        -0.801157
 O         2.373321         1.236696        -1.837862
 O         1.681376        -1.282468         0.597325
 H        -0.769319        -0.300392         0.690451
 H        -0.653669         0.918086        -0.698837
 H        -0.431879        -0.793761        -0.870649
 H         1.894027         2.056410         1.067371
 H         1.628991         0.691475         2.164570
 H         4.204934         0.910068         0.656003
 H         3.556311        -1.813145         1.212833
 H         4.467830        -0.872662        -1.445781
 H         2.987286        -1.830832        -1.833786
 H         3.198931         1.746763        -1.775718
