19
Iteration:  2950
 C        -0.102138        -0.027491        -0.322009
 C         1.301954         0.059553         0.199250
 C         2.129715         0.977572         1.335119
 C         3.301786         0.437907         0.541377
 C         3.123025        -1.134574         0.381425
 C         3.163047        -1.055650        -1.182327
 C         2.441642         0.251031        -0.837955
 O         2.342865         1.159205        -1.891271
 O         1.722495        -1.248984         0.644553
 H        -0.651672        -0.414366         0.584716
 H        -0.697684         0.728125        -0.743750
 H        -0.072522        -0.749423        -1.146471
 H         1.870429         2.012639         0.984058
 H         1.759487         0.829206         2.418188
 H         4.309462         0.742584         0.589980
 H         3.484528        -1.844431         1.097095
 H         4.014941        -0.698530        -1.679005
 H         2.732027        -1.786176        -1.853109
 H         2.424455         2.047910        -1.491468
