19
Iteration:  2532
 C        -0.196169        -0.041925        -0.253615
 C         1.342534        -0.006820         0.103295
 C         1.951157         0.821733         1.187760
 C         3.279051         0.489040         0.513256
 C         3.223457        -1.077143         0.406440
 C         3.158636        -1.083890        -1.100267
 C         2.399000         0.258806        -0.867435
 O         2.572664         1.343866        -1.852509
 O         1.720222        -1.295022         0.707239
 H        -0.816518         0.104461         0.733511
 H        -0.465439         0.863081        -0.691757
 H        -0.509843        -0.852394        -0.912691
 H         1.695643         1.870505         1.037261
 H         1.616986         0.503186         2.147266
 H         4.082137         1.193332         0.641738
 H         3.824012        -1.645593         1.045100
 H         4.157951        -0.800687        -1.590772
 H         2.688349        -2.161800        -1.428713
 H         1.688069         1.363133        -2.336201
