19
Iteration:   212
 C        -0.187413         0.184270        -0.269971
 C         1.293522        -0.052630         0.167169
 C         2.095272         0.908450         1.142194
 C         3.273373         0.417276         0.421478
 C         3.094552        -1.206522         0.475741
 C         3.177708        -1.120838        -1.079326
 C         2.478267         0.254946        -0.867783
 O         2.495690         1.255412        -1.912707
 O         1.664144        -1.344177         0.774049
 H        -1.018266         0.187593         0.464969
 H        -0.113387         1.208244        -0.609025
 H        -0.434541        -0.352946        -1.212658
 H         2.004480         1.955774         0.787768
 H         1.953960         0.966450         2.220104
 H         4.270811         0.963571         0.347690
 H         3.740315        -1.789780         1.146078
 H         4.096760        -1.089477        -1.579861
 H         2.494886        -1.780048        -1.590176
 H         2.272620         2.052465        -1.435920
