19
Iteration:  4443
 C        -0.095054         0.078919        -0.300440
 C         1.347620        -0.043816         0.149892
 C         2.010114         0.966572         1.110393
 C         3.361178         0.409658         0.451962
 C         3.215398        -1.150289         0.402601
 C         3.168304        -1.154320        -1.085157
 C         2.511446         0.292087        -0.912425
 O         2.261911         1.321264        -1.744205
 O         1.726630        -1.293739         0.806417
 H        -0.854515        -0.297623         0.409440
 H        -0.290427         1.115877        -0.748504
 H        -0.123198        -0.552175        -1.302520
 H         1.877973         1.999277         0.748286
 H         1.717442         0.853691         2.203323
 H         4.349617         0.859489         0.318227
 H         3.837714        -1.858066         1.045368
 H         4.118407        -1.147858        -1.654505
 H         2.444981        -1.914799        -1.430921
 H         1.408578         1.252965        -2.180093
