19
Iteration:  1535
 C        -0.108942        -0.036222        -0.418442
 C         1.276563        -0.000847         0.226662
 C         1.942308         0.947971         1.240084
 C         3.240961         0.471218         0.633191
 C         3.098668        -1.139152         0.442536
 C         3.172544        -1.092542        -1.113262
 C         2.525578         0.308493        -0.850813
 O         2.372861         1.284958        -1.965980
 O         1.758446        -1.335199         0.685413
 H        -0.921365        -0.391580         0.245338
 H        -0.158572         1.110160        -0.676967
 H         0.051075        -0.617206        -1.266325
 H         1.862643         2.016083         1.064944
 H         1.873936         0.695077         2.327030
 H         4.199043         0.844182         0.853576
 H         3.732884        -1.685852         1.146589
 H         4.195321        -0.984874        -1.518132
 H         2.539833        -1.875069        -1.556901
 H         3.270349         1.718008        -1.858755
