19
Iteration:  4358charge 0 multiplicity 1
 C        -0.204375         0.040226        -0.001906
 C         1.260123        -0.052261         0.243130
 C         1.940793         0.973034         1.136384
 C         3.257903         0.516676         0.446801
 C         3.213783        -1.103602         0.366393
 C         3.119361        -1.116627        -1.137822
 C         2.490759         0.323094        -0.885392
 O         2.547256         1.230204        -1.881758
 O         1.762173        -1.339116         0.598622
 H        -0.902645         0.094105         0.798995
 H        -0.411324         0.968060        -0.447186
 H        -0.542748        -0.873928        -0.584391
 H         1.663651         2.043343         0.896823
 H         1.872911         0.807694         2.253842
 H         4.235522         0.919318         0.759876
 H         3.807859        -1.731997         1.151109
 H         4.087990        -0.830325        -1.579019
 H         2.601692        -1.876532        -1.828867
 H         2.231011         0.791280        -2.710969
