19
Iteration:  4266
 C        -0.076217         0.067375        -0.290461
 C         1.338274        -0.058489         0.236655
 C         1.951915         0.996445         1.161903
 C         3.293577         0.431372         0.460647
 C         3.211287        -1.203518         0.331930
 C         3.105859        -1.025321        -1.164252
 C         2.476736         0.261236        -0.814756
 O         2.352848         1.195519        -1.903892
 O         1.771499        -1.281635         0.809864
 H        -0.676410        -0.243022         0.625006
 H        -0.258557         1.214466        -0.443273
 H        -0.153396        -0.699456        -1.027056
 H         1.897647         2.073683         0.896938
 H         1.819993         0.900822         2.269472
 H         4.230340         0.991468         0.661297
 H         3.895756        -1.809874         0.886948
 H         4.149678        -1.072346        -1.574967
 H         2.526292        -1.697492        -1.752304
 H         1.492150         1.618844        -1.903185
