19
Iteration:  3913charge 0 multiplicity 1
 C        -0.190681         0.113471        -0.129239
 C         1.319297        -0.064911         0.158443
 C         2.040705         0.923027         1.163912
 C         3.245635         0.497867         0.456341
 C         3.147955        -1.159196         0.428125
 C         3.208878        -1.106699        -1.216785
 C         2.508613         0.210002        -0.889937
 O         2.342134         1.244379        -1.884699
 O         1.758012        -1.236451         0.795592
 H        -0.896753        -0.091163         0.692742
 H        -0.528235         1.075085        -0.484455
 H        -0.526518        -0.667264        -0.727684
 H         1.876706         2.016444         1.035322
 H         1.699552         0.536530         2.208850
 H         4.094096         1.174898         0.503084
 H         3.762029        -1.947769         0.900548
 H         4.242741        -0.954658        -1.625783
 H         2.777740        -1.840750        -2.015460
 H         3.056876         1.144739        -2.512588
