19
Iteration:  2448
 C        -0.233127         0.056833        -0.294594
 C         1.266979        -0.104753         0.180832
 C         1.955840         0.930877         1.147243
 C         3.238015         0.546228         0.439134
 C         3.177606        -1.106033         0.407403
 C         3.213149        -1.058925        -1.088955
 C         2.571543         0.242341        -0.902336
 O         2.483161         1.325573        -1.766814
 O         1.748029        -1.377460         0.720846
 H        -0.949277        -0.383538         0.539411
 H        -0.434423         1.136733        -0.517056
 H        -0.440680        -0.529733        -1.271983
 H         1.542243         1.959622         0.893617
 H         1.918199         0.644213         2.204541
 H         4.242488         1.010561         0.702801
 H         3.836514        -1.762870         0.938780
 H         4.233687        -0.971431        -1.297566
 H         2.803645        -1.940591        -1.527964
 H         1.802920         1.124314        -2.396072
