19
Iteration:  4976charge 0 multiplicity 1
 C        -0.071830         0.073662        -0.206235
 C         1.330413        -0.001482         0.188093
 C         2.035409         0.962412         1.124447
 C         3.361433         0.438291         0.516290
 C         3.242592        -1.123138         0.433422
 C         3.165366        -1.102248        -1.063899
 C         2.490546         0.273725        -0.869877
 O         2.248491         1.166918        -1.938244
 O         1.704005        -1.279852         0.717245
 H        -0.867569        -0.002871         0.576546
 H        -0.151560         1.086460        -0.627257
 H        -0.290979        -0.656908        -1.035839
 H         1.762766         2.037539         0.771938
 H         1.616299         0.810705         2.228382
 H         4.363385         0.758731         0.614391
 H         3.887467        -1.848209         0.965953
 H         4.180725        -0.950655        -1.414947
 H         2.742023        -1.798382        -1.874155
 H         1.400025         1.645266        -1.940729
