19
Iteration:  2849
 C        -0.143416        -0.029493        -0.229133
 C         1.356981         0.087356         0.150804
 C         1.973980         0.891176         1.269902
 C         3.329904         0.371453         0.608668
 C         3.104817        -1.144684         0.404900
 C         3.186862        -1.037185        -1.176476
 C         2.601125         0.326502        -0.892509
 O         2.347886         1.232009        -1.987522
 O         1.733302        -1.245481         0.691962
 H        -0.787348        -0.090848         0.687282
 H        -0.507888         0.818508        -0.701485
 H        -0.248062        -1.023780        -0.837382
 H         1.776653         1.990584         0.996651
 H         1.767771         0.581583         2.294073
 H         4.388408         0.798210         0.797748
 H         3.612954        -2.003909         0.960647
 H         4.175668        -1.077493        -1.505757
 H         2.495796        -1.662813        -1.715404
 H         1.637887         1.841294        -1.694368
