19
Iteration:   506
 C        -0.113878         0.197949        -0.204835
 C         1.307006        -0.022252         0.141016
 C         2.058984         0.974982         1.043477
 C         3.279995         0.434675         0.382427
 C         3.062433        -1.199061         0.392075
 C         3.123581        -1.111703        -1.054696
 C         2.522157         0.196986        -0.881694
 O         2.458222         1.327990        -1.710844
 O         1.657651        -1.383427         0.765902
 H        -0.734452         0.201321         0.697539
 H        -0.041524         1.129643        -0.692023
 H        -0.601072        -0.496784        -0.927232
 H         1.789330         2.055450         0.755261
 H         2.189312         0.670113         2.083147
 H         4.224655         1.017043         0.443929
 H         3.676655        -1.872464         0.944936
 H         4.204443        -1.041590        -1.596821
 H         2.461828        -1.965419        -1.564224
 H         2.617545         1.063281        -2.634066
