19
Iteration:  3499charge 0 multiplicity 1
 C        -0.168299         0.014743        -0.272397
 C         1.291802         0.058390         0.155231
 C         2.088916         0.948418         1.242683
 C         3.333772         0.452038         0.460308
 C         3.138380        -1.107438         0.451187
 C         3.208142        -1.131463        -1.166865
 C         2.485533         0.226598        -0.886283
 O         2.345119         1.249195        -1.822761
 O         1.719304        -1.238162         0.674489
 H        -0.748414        -0.212842         0.662545
 H        -0.553140         0.856963        -0.858855
 H        -0.233052        -0.766752        -0.871578
 H         2.005905         1.977329         1.255022
 H         2.072765         0.543509         2.231955
 H         4.368724         0.939139         0.608171
 H         3.540039        -1.746455         1.256682
 H         4.164370        -0.817643        -1.532113
 H         2.813635        -2.013823        -1.707143
 H         1.528546         1.068678        -2.285947
