19
Iteration:  2747charge 0 multiplicity 1
 C        -0.241613        -0.033887        -0.058235
 C         1.276797        -0.058370         0.217534
 C         1.973881         0.958704         1.219315
 C         3.244064         0.464639         0.506795
 C         3.114922        -1.156118         0.416983
 C         3.202026        -1.031011        -1.061685
 C         2.499380         0.316648        -0.935105
 O         2.494284         1.346507        -1.955871
 O         1.715036        -1.346160         0.550451
 H        -0.711831        -0.332892         0.764984
 H        -0.698067         1.009241        -0.379064
 H        -0.367963        -0.801897        -0.791209
 H         1.810078         2.018116         0.949336
 H         1.871394         0.861960         2.333884
 H         4.263316         0.825410         0.494167
 H         3.703637        -1.882007         0.967360
 H         4.297434        -0.976636        -1.298517
 H         2.837543        -1.913309        -1.574817
 H         3.333385         1.197875        -2.459414
