19
Iteration:  2288
 C        -0.152107         0.000420        -0.337319
 C         1.262737         0.052140         0.097937
 C         1.986479         0.950758         1.168817
 C         3.272718         0.383510         0.553897
 C         3.114852        -1.138888         0.424253
 C         3.217469        -1.016874        -1.070556
 C         2.547141         0.264202        -0.825445
 O         2.418109         1.271583        -1.804036
 O         1.759995        -1.313980         0.663659
 H        -0.784284        -0.552405         0.466843
 H        -0.624587         1.040884        -0.634009
 H        -0.314953        -0.708657        -1.128838
 H         1.924246         1.992505         0.840289
 H         1.968222         0.715958         2.214041
 H         4.240961         0.871603         0.828533
 H         3.695110        -1.829034         1.008785
 H         4.305626        -0.739690        -1.286263
 H         2.726622        -1.642433        -1.840707
 H         1.554576         1.122566        -2.165546
