19
Iteration:  2786charge 0 multiplicity 1
 C        -0.051854         0.057450        -0.239435
 C         1.333573        -0.007484         0.057459
 C         1.986064         0.966230         1.119128
 C         3.298246         0.388169         0.507802
 C         3.119746        -1.157745         0.445298
 C         3.251350        -1.075138        -1.103341
 C         2.512546         0.250519        -0.877965
 O         2.244531         1.269644        -1.821400
 O         1.737531        -1.305547         0.721398
 H        -0.668048        -0.342943         0.751697
 H        -0.368158         1.032841        -0.506406
 H        -0.403226        -0.441855        -1.189834
 H         1.756849         1.995379         0.861168
 H         1.652708         0.806037         2.156054
 H         4.299972         0.826177         0.503075
 H         3.627778        -2.072370         0.819809
 H         4.299443        -0.978331        -1.395261
 H         2.746828        -1.872945        -1.741605
 H         2.471471         2.089271        -1.373400
