19
Iteration:  3603
 C        -0.160507        -0.001188        -0.227460
 C         1.316352         0.022288         0.192928
 C         2.041476         1.011293         1.166576
 C         3.316261         0.443242         0.526480
 C         3.157126        -1.130450         0.390909
 C         3.098636        -1.054585        -1.171930
 C         2.537186         0.258376        -0.811869
 O         2.375737         1.201517        -1.854693
 O         1.785451        -1.293307         0.689006
 H        -0.804081        -0.178491         0.604925
 H        -0.346939         1.061730        -0.548350
 H        -0.235616        -0.821650        -1.100714
 H         1.781731         2.030373         0.691078
 H         1.901686         0.972167         2.302907
 H         4.269208         0.889452         0.617785
 H         3.652581        -1.881302         1.027923
 H         4.123956        -0.931799        -1.627313
 H         2.482281        -1.778148        -1.737889
 H         1.453138         1.053004        -2.169527
