19
Iteration:  2548
 C        -0.266765        -0.018134        -0.123556
 C         1.211970        -0.049657         0.126230
 C         1.887285         0.937332         1.164398
 C         3.176226         0.498816         0.447580
 C         3.169441        -1.077225         0.467260
 C         3.247698        -1.101834        -1.110651
 C         2.592328         0.265445        -0.908695
 O         2.579446         1.336348        -1.810956
 O         1.777556        -1.330227         0.599157
 H        -0.693316        -0.200584         0.846959
 H        -0.429069         1.000794        -0.708775
 H        -0.556286        -0.898436        -0.755442
 H         1.718026         2.030422         1.112600
 H         1.901266         0.576573         2.237917
 H         4.253353         0.836649         0.480257
 H         3.781681        -1.770597         1.152961
 H         4.219750        -1.140967        -1.545667
 H         2.630509        -1.764190        -1.595652
 H         1.779774         1.314376        -2.395832
