19
Iteration:  4935
 C        -0.094946        -0.005273        -0.234609
 C         1.330027         0.002392         0.189347
 C         2.063074         1.002094         1.110503
 C         3.372194         0.405734         0.483417
 C         3.152644        -1.147222         0.442832
 C         3.185191        -1.151387        -1.112620
 C         2.458324         0.264016        -0.867374
 O         2.236454         1.216842        -1.905224
 O         1.720238        -1.222943         0.741913
 H        -0.816976        -0.208241         0.541885
 H        -0.346119         0.880776        -0.793515
 H        -0.208028        -0.692332        -1.164998
 H         1.899157         2.057128         0.911023
 H         2.056353         0.759265         2.145151
 H         4.266211         1.028466         0.464920
 H         3.715918        -1.781073         1.114179
 H         4.151333        -0.821655        -1.442942
 H         2.871044        -2.118383        -1.638691
 H         2.028794         2.079688        -1.468804
