19
Iteration:  3201charge 0 multiplicity 1
 C        -0.266002         0.046526         0.065237
 C         1.260003         0.033724         0.094216
 C         1.999087         0.960200         1.161431
 C         3.285394         0.377424         0.414636
 C         3.150886        -1.107409         0.410909
 C         3.254611        -1.138068        -1.152486
 C         2.467685         0.252876        -0.894479
 O         2.573825         1.246876        -1.901747
 O         1.686154        -1.281096         0.608780
 H        -0.829812         0.012345         1.032470
 H        -0.565772         1.023180        -0.320796
 H        -0.668715        -0.837571        -0.596169
 H         1.955028         1.966111         0.903199
 H         1.709764         0.762817         2.129395
 H         4.141114         0.990465         0.444594
 H         3.780928        -1.842601         1.034754
 H         4.333978        -0.987489        -1.371688
 H         2.854406        -1.986300        -1.666078
 H         1.844292         1.874602        -1.911614
