19
Iteration:  3483
 C        -0.061729         0.022571        -0.323658
 C         1.362405         0.056586         0.236209
 C         2.095465         1.016797         1.201108
 C         3.325478         0.484241         0.445953
 C         3.131981        -1.198846         0.400458
 C         3.213608        -1.109110        -1.047369
 C         2.455993         0.261897        -0.840239
 O         2.266805         1.186509        -1.752907
 O         1.683906        -1.254356         0.604072
 H        -0.877505        -0.118784         0.361046
 H        -0.289364         1.038990        -0.718689
 H        -0.057330        -0.860288        -1.189113
 H         1.856951         2.129501         0.899406
 H         1.970660         0.729592         2.297685
 H         4.293462         0.865811         0.238978
 H         3.877385        -1.895323         0.851043
 H         4.256693        -0.958128        -1.455372
 H         2.678560        -1.859742        -1.635357
 H         1.327539         1.140493        -1.937663
