19
Iteration:   688charge 0 multiplicity 1
 C        -0.067204         0.170996        -0.272100
 C         1.296490         0.008833         0.212723
 C         1.980701         0.932682         1.211379
 C         3.259432         0.448584         0.495979
 C         3.114929        -1.161435         0.424397
 C         3.093661        -1.126946        -1.099516
 C         2.513972         0.244302        -0.882582
 O         2.485936         1.252486        -1.951836
 O         1.711702        -1.374675         0.726012
 H        -0.903504         0.353459         0.503185
 H        -0.211008         1.098233        -0.939130
 H        -0.264348        -0.738011        -0.852041
 H         1.875268         1.997611         1.131733
 H         1.849687         0.519808         2.188539
 H         4.254937         0.787658         0.518140
 H         3.863563        -1.827271         0.857030
 H         4.070457        -1.219767        -1.394885
 H         2.522433        -1.790019        -1.572253
 H         2.006861         2.097019        -1.718580
