19
Iteration:  1577charge 0 multiplicity 1
 C        -0.226700        -0.013836        -0.203058
 C         1.280991        -0.029644         0.061318
 C         1.933714         1.001659         1.138558
 C         3.208973         0.411257         0.564550
 C         3.100482        -1.131686         0.464200
 C         3.384108        -1.151222        -1.076926
 C         2.582464         0.280550        -0.940221
 O         2.372616         1.306912        -1.787917
 O         1.719974        -1.272396         0.585228
 H        -0.814280        -0.137135         0.786065
 H        -0.596548         0.944668        -0.682310
 H        -0.441696        -0.752968        -0.856969
 H         1.731701         2.005123         0.860007
 H         1.591352         0.702068         2.154991
 H         4.130843         0.741954         0.962596
 H         3.603321        -1.913599         1.024019
 H         4.549687        -0.837770        -1.231981
 H         2.963964        -2.032268        -1.632188
 H         3.154894         1.857872        -2.054297
