19
Iteration:   669
 C        -0.131917         0.119773        -0.273749
 C         1.313482         0.011111         0.187122
 C         2.017401         0.916811         1.243579
 C         3.298716         0.414935         0.418370
 C         3.101256        -1.188940         0.381890
 C         3.172643        -1.150107        -1.176740
 C         2.481647         0.234971        -0.854074
 O         2.538272         1.231854        -1.807976
 O         1.669514        -1.208748         0.723556
 H        -0.897988         0.170942         0.593119
 H        -0.302716         1.060687        -0.785098
 H        -0.545867        -0.646430        -0.955517
 H         1.840954         2.076177         1.016202
 H         1.859342         0.659022         2.321708
 H         4.268927         0.953117         0.560365
 H         3.549049        -1.815156         1.146039
 H         4.171928        -0.881024        -1.717618
 H         2.669911        -2.022802        -1.736057
 H         1.559900         1.306093        -2.013144
