19
Iteration:  1876
 C        -0.158658         0.015398        -0.284044
 C         1.301376        -0.012836         0.160829
 C         1.889255         0.900285         1.281507
 C         3.203114         0.473042         0.514777
 C         3.116331        -1.013565         0.460986
 C         3.186926        -1.089801        -1.146891
 C         2.523392         0.280122        -0.878526
 O         2.486983         1.253986        -1.875477
 O         1.745289        -1.312140         0.620705
 H        -0.732849        -0.326375         0.628352
 H        -0.482032         1.025984        -0.573142
 H        -0.242708        -0.763320        -1.192978
 H         1.509457         1.915224         1.388681
 H         1.876434         0.493195         2.282523
 H         4.189950         0.944039         0.826074
 H         3.775492        -1.680276         0.913339
 H         4.201434        -1.104894        -1.588113
 H         2.562547        -1.895707        -1.517799
 H         3.408890         1.229822        -2.204481
