19
Iteration:  4432charge 0 multiplicity 1
 C        -0.061919         0.045583        -0.262620
 C         1.348062        -0.025417         0.215291
 C         1.989037         1.062443         1.018435
 C         3.357554         0.433533         0.484137
 C         3.154829        -1.134718         0.438944
 C         3.102929        -1.108099        -1.128170
 C         2.532217         0.196668        -0.833496
 O         2.312616         1.328300        -1.775938
 O         1.753213        -1.361145         0.698072
 H        -0.783968        -0.149650         0.577760
 H        -0.297445         1.182712        -0.342058
 H        -0.406828        -0.677953        -1.166069
 H         1.728230         2.062146         0.649162
 H         1.836355         0.999857         2.150455
 H         4.345592         0.890625         0.597735
 H         3.740726        -1.944431         0.987213
 H         4.133363        -0.996353        -1.564294
 H         2.686210        -2.016339        -1.562060
 H         1.425000         1.070217        -2.074856
