19
Iteration:  2515
 C        -0.095167        -0.023779        -0.326385
 C         1.272003        -0.033092         0.220732
 C         1.941264         0.958967         1.223415
 C         3.240209         0.426946         0.504854
 C         3.142248        -1.131611         0.415951
 C         3.176166        -1.048699        -1.139681
 C         2.531780         0.310839        -0.879440
 O         2.444650         1.283501        -1.824862
 O         1.766877        -1.300600         0.717550
 H        -0.964676        -0.056101         0.338944
 H        -0.367303         0.912410        -0.988909
 H        -0.113082        -0.938941        -0.985462
 H         1.780722         2.048380         1.053208
 H         1.847941         0.728813         2.312541
 H         4.279401         0.851638         0.619996
 H         3.753515        -1.909103         0.947493
 H         4.158602        -0.855011        -1.495956
 H         2.653656        -1.726471        -1.739385
 H         1.618215         1.239482        -2.377871
