19
Iteration:  1776charge 0 multiplicity 1
 C        -0.120576        -0.003054        -0.318214
 C         1.295693        -0.034933         0.187839
 C         1.894419         0.932595         1.247294
 C         3.184935         0.479903         0.575029
 C         3.124475        -1.162892         0.380862
 C         3.274578        -0.989804        -1.119419
 C         2.556596         0.310290        -0.852091
 O         2.446159         1.258558        -1.893804
 O         1.690417        -1.327146         0.674545
 H        -0.983946        -0.112020         0.485600
 H        -0.387782         1.022628        -0.877780
 H        -0.327852        -0.924689        -0.784417
 H         1.696395         2.055655         1.085254
 H         1.727646         0.693218         2.271115
 H         4.196222         0.946463         0.750443
 H         3.594423        -1.982552         0.968392
 H         4.359254        -1.063453        -1.506539
 H         2.667965        -1.800793        -1.581893
 H         3.275127         1.413634        -2.323986
