19
Iteration:  3602charge 0 multiplicity 1
 C        -0.159201        -0.006556        -0.225442
 C         1.315551         0.017922         0.194092
 C         2.044285         1.012259         1.164064
 C         3.302680         0.440633         0.523142
 C         3.151239        -1.126166         0.390575
 C         3.098739        -1.054372        -1.169741
 C         2.550964         0.267402        -0.815441
 O         2.379070         1.205904        -1.855456
 O         1.779345        -1.290796         0.690783
 H        -0.784249        -0.175024         0.632198
 H        -0.340605         1.027545        -0.519220
 H        -0.248810        -0.813800        -1.081790
 H         1.782425         2.032621         0.690939
 H         1.915356         0.944040         2.280082
 H         4.269821         0.869130         0.600031
 H         3.665348        -1.892296         1.004738
 H         4.142350        -0.949227        -1.615371
 H         2.498123        -1.795538        -1.727823
 H         1.449301         1.032816        -2.166795
