19
Iteration:   828charge 0 multiplicity 1
 C        -0.196098        -0.034487        -0.270042
 C         1.311040         0.043056         0.150467
 C         2.043147         1.005041         1.232799
 C         3.268704         0.434324         0.494469
 C         3.013548        -1.184226         0.483488
 C         3.325417        -1.114878        -1.085881
 C         2.584192         0.256055        -0.883637
 O         2.328488         1.311136        -1.866502
 O         1.639872        -1.276163         0.626518
 H        -0.912406        -0.230274         0.466065
 H        -0.334107         1.016754        -0.580594
 H        -0.236536        -0.688748        -1.077537
 H         2.076049         2.068750         1.098855
 H         1.913620         0.679473         2.309370
 H         4.224318         0.809973         0.640741
 H         3.568683        -1.906351         1.085186
 H         4.423931        -0.924638        -1.272567
 H         2.895186        -2.056664        -1.749309
 H         3.202637         1.351907        -2.347712
