19
Iteration:  4596
 C        -0.060156        -0.029205        -0.217690
 C         1.349222         0.066752         0.125666
 C         2.034021         0.943654         1.202665
 C         3.281852         0.423411         0.490505
 C         3.147285        -1.158318         0.416939
 C         3.113447        -1.078703        -1.135664
 C         2.536499         0.276772        -0.848071
 O         2.349291         1.310297        -1.869796
 O         1.716521        -1.254791         0.740963
 H        -0.783428        -0.441457         0.533333
 H        -0.548518         0.884518        -0.571321
 H        -0.135289        -0.824771        -1.010111
 H         2.056258         1.988020         0.812094
 H         1.845604         0.853344         2.297071
 H         4.242965         0.935339         0.453034
 H         3.711542        -2.007251         0.988013
 H         4.074856        -0.931208        -1.700699
 H         2.521530        -1.924619        -1.603152
 H         1.666734         0.791888        -2.349652
