19
Iteration:   881charge 0 multiplicity 1
 C        -0.108326         0.130693        -0.347951
 C         1.287222        -0.077071         0.276953
 C         1.925238         0.904769         1.172475
 C         3.240713         0.440857         0.478655
 C         3.123891        -1.148333         0.405383
 C         3.235213        -1.083376        -1.100833
 C         2.599022         0.257788        -0.921214
 O         2.441639         1.369906        -1.786682
 O         1.677105        -1.369693         0.720675
 H        -0.893629         0.268790         0.366527
 H        -0.032768         1.054786        -1.068809
 H        -0.396920        -0.818210        -0.785984
 H         1.593200         1.902685         0.729887
 H         1.691967         0.806183         2.360126
 H         4.138035         0.932856         0.679176
 H         3.797343        -1.678001         1.061966
 H         4.336019        -1.167271        -1.295951
 H         2.679302        -1.901346        -1.697401
 H         2.081511         1.027872        -2.653570
