19
Iteration:  3480
 C        -0.041901         0.041332        -0.334823
 C         1.371163         0.029340         0.233255
 C         2.083587         1.037315         1.199605
 C         3.344191         0.466113         0.478736
 C         3.129673        -1.186227         0.416936
 C         3.210934        -1.084367        -1.062539
 C         2.458803         0.239169        -0.859163
 O         2.251548         1.204392        -1.766755
 O         1.679129        -1.282785         0.622039
 H        -0.931991        -0.158242         0.422950
 H        -0.249713         1.009122        -0.752800
 H        -0.030214        -0.767565        -1.180608
 H         1.868257         2.068768         0.867403
 H         1.980170         0.825300         2.261303
 H         4.316505         0.919158         0.228138
 H         3.831497        -1.909223         0.772531
 H         4.237147        -0.993646        -1.451248
 H         2.645227        -1.900757        -1.583502
 H         1.292003         1.184863        -1.932156
