19
Iteration:  4724
 C        -0.235788        -0.008253        -0.009878
 C         1.276615        -0.047762         0.152052
 C         1.969203         0.957473         1.051743
 C         3.244099         0.481540         0.433228
 C         3.136570        -1.136823         0.419190
 C         3.156198        -1.086875        -1.135818
 C         2.568029         0.259669        -0.946060
 O         2.530680         1.295399        -1.835355
 O         1.770723        -1.273346         0.742992
 H        -0.720310        -0.130782         1.052300
 H        -0.612297         0.986796        -0.508278
 H        -0.670886        -0.642334        -0.747584
 H         1.522814         1.901878         0.692703
 H         1.727144         0.731045         2.114093
 H         4.308267         0.798342         0.414378
 H         3.939462        -1.730855         0.971666
 H         4.180930        -0.914433        -1.656522
 H         2.547035        -1.904249        -1.544560
 H         2.113286         1.062026        -2.685647
