19
Iteration:  2613charge 0 multiplicity 1
 C        -0.130997         0.034086        -0.223779
 C         1.311220        -0.052334         0.189943
 C         1.945759         0.914128         1.213317
 C         3.254516         0.569087         0.499591
 C         3.187169        -1.139653         0.454460
 C         3.255723        -1.073760        -1.115033
 C         2.556182         0.218654        -0.870658
 O         2.338286         1.308390        -1.850586
 O         1.678015        -1.317787         0.610480
 H        -0.866322        -0.349499         0.520449
 H        -0.547123         1.033360        -0.498033
 H        -0.454641        -0.591258        -1.060778
 H         1.583394         1.929501         0.991808
 H         2.046072         0.598140         2.280642
 H         4.246409         1.068910         0.622551
 H         3.823445        -1.927296         0.999591
 H         4.274550        -1.148433        -1.536866
 H         2.484133        -1.792411        -1.592847
 H         3.117516         1.225061        -2.464010
