19
Iteration:   250
 C        -0.124350         0.063366        -0.171433
 C         1.314690         0.099335         0.149026
 C         2.064530         0.971209         1.221969
 C         3.330415         0.447287         0.574599
 C         3.022438        -1.260476         0.431723
 C         3.126812        -1.076051        -1.084104
 C         2.641301         0.297861        -0.862570
 O         2.505328         1.159801        -1.930528
 O         1.599403        -1.238568         0.574092
 H        -0.685055        -0.199901         0.727162
 H        -0.444238         1.046052        -0.577887
 H        -0.317691        -0.745007        -0.845797
 H         2.190889         2.072410         1.045325
 H         1.843771         0.709121         2.298032
 H         4.306969         0.931338         0.561877
 H         3.385029        -2.148584         0.996257
 H         4.216113        -1.130864        -1.606545
 H         2.274207        -1.611443        -1.673608
 H         1.578268         1.362294        -2.142834
