19
Iteration:  4020
 C        -0.221038        -0.046489        -0.073595
 C         1.264852         0.073755         0.227122
 C         2.036919         0.995403         1.145694
 C         3.267061         0.467187         0.482531
 C         3.131166        -1.105521         0.472455
 C         3.147584        -1.129284        -1.159547
 C         2.516678         0.266016        -0.936614
 O         2.426444         1.261967        -1.841277
 O         1.766699        -1.314693         0.597855
 H        -0.658446        -0.086111         0.912984
 H        -0.522503         0.839071        -0.693231
 H        -0.327897        -1.037164        -0.759503
 H         1.844613         1.962592         0.777105
 H         1.917157         0.912433         2.241479
 H         4.131853         1.130809         0.529569
 H         3.829883        -1.806253         0.924722
 H         4.103112        -1.034273        -1.632854
 H         2.374840        -1.755191        -1.565042
 H         3.024090         1.001918        -2.541680
