19
Iteration:  2883
 C        -0.254953         0.053858        -0.004942
 C         1.278359         0.036119         0.182377
 C         1.949864         0.932030         1.130938
 C         3.254750         0.454174         0.440295
 C         3.106567        -1.182860         0.424623
 C         3.321012        -1.005363        -1.122561
 C         2.476714         0.219164        -0.877153
 O         2.541412         1.221372        -1.862910
 O         1.722072        -1.343479         0.529012
 H        -0.699024        -0.210076         0.981826
 H        -0.715024         0.873986        -0.412337
 H        -0.572479        -0.756761        -0.723723
 H         1.567189         1.928658         0.741039
 H         1.865358         1.005313         2.237520
 H         4.237599         0.946970         0.263698
 H         3.780536        -1.777312         1.057594
 H         4.274480        -0.734028        -1.403611
 H         2.994059        -1.832160        -1.736597
 H         1.997465         1.950709        -1.560763
