19
Iteration:  4509
 C        -0.220181         0.028859        -0.041527
 C         1.329859        -0.017482         0.117898
 C         1.943552         1.042666         1.124161
 C         3.342997         0.455218         0.535350
 C         3.154537        -1.139536         0.366599
 C         3.223945        -1.077871        -1.147056
 C         2.539394         0.233659        -0.880835
 O         2.406422         1.301656        -1.859199
 O         1.717650        -1.327608         0.684229
 H        -0.694114        -0.134421         0.918405
 H        -0.392832         0.975732        -0.575665
 H        -0.505827        -0.698130        -0.824122
 H         1.854782         2.089846         0.779606
 H         1.519142         0.774947         2.120238
 H         4.410662         0.576824         0.735023
 H         3.902250        -1.909659         0.829685
 H         4.202879        -1.186104        -1.585935
 H         2.683594        -1.838433        -1.715737
 H         1.796338         0.999255        -2.580041
