19
Iteration:     7
 C        -0.084871         0.104502        -0.240609
 C         1.308080         0.060860         0.136457
 C         1.956432         0.974553         1.182957
 C         3.337039         0.430401         0.531260
 C         3.070492        -1.173556         0.468737
 C         3.169746        -1.150824        -1.099017
 C         2.515429         0.249671        -0.854506
 O         2.477106         1.199913        -1.921728
 O         1.644724        -1.303193         0.678740
 H        -0.715974         0.040119         0.669111
 H        -0.142572         1.177439        -0.625512
 H        -0.484523        -0.571538        -1.071319
 H         1.936391         2.085497         0.988662
 H         1.836144         0.652293         2.231392
 H         4.459417         0.649696         0.340561
 H         3.622818        -1.964074         0.984583
 H         4.130074        -0.964860        -1.629377
 H         2.595573        -1.892458        -1.678590
 H         2.072685         2.021553        -1.632398
