19
Iteration:   690charge 0 multiplicity 1
 C        -0.071642         0.169895        -0.278772
 C         1.309924        -0.004261         0.207729
 C         1.983149         0.927737         1.209093
 C         3.281409         0.437419         0.492947
 C         3.117256        -1.153987         0.417309
 C         3.096030        -1.104234        -1.080256
 C         2.508193         0.267286        -0.865627
 O         2.475284         1.249072        -1.969488
 O         1.697097        -1.387841         0.726676
 H        -0.926052         0.340133         0.518384
 H        -0.202749         1.053720        -0.931370
 H        -0.373567        -0.733661        -0.877821
 H         1.921258         2.093494         1.100086
 H         1.785050         0.533888         2.223604
 H         4.339859         0.783522         0.558836
 H         3.866064        -1.790140         0.900947
 H         4.135509        -1.258773        -1.454714
 H         2.441878        -1.832969        -1.558431
 H         2.092675         2.080504        -1.632848
