19
Iteration:  1891charge 0 multiplicity 1
 C        -0.153492         0.004357        -0.176885
 C         1.252855        -0.043727         0.098890
 C         1.890571         0.868275         1.149814
 C         3.205187         0.543595         0.515854
 C         3.215578        -1.168883         0.422691
 C         3.189758        -1.061033        -1.024583
 C         2.550524         0.301792        -0.884423
 O         2.511468         1.322574        -1.841971
 O         1.676981        -1.336473         0.623951
 H        -0.771248        -0.318056         0.569313
 H        -0.395601         1.005355        -0.388124
 H        -0.452562        -0.604036        -1.002617
 H         1.762351         1.929652         0.925777
 H         1.563729         0.601316         2.200832
 H         4.104105         1.101479         0.510556
 H         3.738299        -1.741256         1.228570
 H         4.263632        -0.885814        -1.477102
 H         2.676173        -1.887907        -1.627315
 H         3.209901         1.224621        -2.474054
