19
Iteration:  1098
 C        -0.208131        -0.061717        -0.258982
 C         1.288164        -0.037679         0.080559
 C         1.970239         0.967819         1.132402
 C         3.268955         0.341017         0.600173
 C         3.071733        -1.107123         0.460575
 C         3.244602        -1.005101        -1.056142
 C         2.475496         0.374172        -0.811569
 O         2.477378         1.198387        -1.860365
 O         1.726480        -1.303977         0.588477
 H        -0.583732         0.151796         0.717499
 H        -0.407692         0.894713        -0.992457
 H        -0.645140        -0.924835        -0.750675
 H         2.007382         2.010326         0.858134
 H         1.694406         0.997839         2.169021
 H         4.274089         0.823299         0.718900
 H         3.580534        -1.897105         1.039234
 H         4.292209        -0.794129        -1.444863
 H         2.731502        -1.689720        -1.755056
 H         2.986331         1.986745        -1.782913
