19
Iteration:  3469
 C        -0.002124         0.108385        -0.345206
 C         1.341636        -0.046992         0.191774
 C         2.073034         1.030704         1.153508
 C         3.341731         0.406232         0.540966
 C         3.157223        -1.132840         0.458257
 C         3.161821        -1.073894        -1.157415
 C         2.518747         0.225049        -0.856710
 O         2.206289         1.283706        -1.839588
 O         1.716438        -1.376376         0.732413
 H        -0.812695        -0.238337         0.450230
 H        -0.233774         1.078770        -0.738711
 H        -0.122754        -0.654394        -1.229239
 H         1.932886         2.046277         0.742874
 H         1.902091         1.128170         2.225767
 H         4.349741         0.853241         0.682483
 H         3.570818        -1.891384         1.086521
 H         4.188856        -0.935767        -1.512473
 H         2.659942        -1.952734        -1.622370
 H         1.225532         1.380729        -1.994282
