19
Iteration:   185charge 0 multiplicity 1
 C        -0.075078         0.152528        -0.207641
 C         1.372292         0.088395         0.142092
 C         2.025569         1.058598         1.092802
 C         3.264861         0.372132         0.516766
 C         3.032145        -1.205989         0.417231
 C         3.229024        -1.164257        -1.111309
 C         2.559670         0.183376        -0.870974
 O         2.301808         1.190661        -1.786728
 O         1.647216        -1.294676         0.642227
 H        -0.815898         0.004641         0.641215
 H        -0.259984         1.184585        -0.660481
 H        -0.185016        -0.579788        -1.019976
 H         2.049963         2.139532         0.850004
 H         1.683786         1.043834         2.156163
 H         4.273582         0.718342         0.658196
 H         3.665578        -1.886738         1.005185
 H         4.321713        -1.110709        -1.408494
 H         2.612452        -1.882415        -1.709606
 H         3.084661         1.743028        -1.754961
