19
Iteration:   504charge 0 multiplicity 1
 C        -0.127967         0.199308        -0.212622
 C         1.296884        -0.015062         0.143546
 C         2.045075         0.963220         1.060790
 C         3.286216         0.436628         0.395137
 C         3.063231        -1.194854         0.404999
 C         3.094988        -1.116971        -1.077655
 C         2.526971         0.197712        -0.896372
 O         2.471289         1.323252        -1.721518
 O         1.677976        -1.379940         0.770936
 H        -0.727008         0.235214         0.693966
 H        -0.045661         1.119409        -0.663224
 H        -0.539223        -0.456890        -0.893376
 H         1.818866         1.994005         0.713775
 H         2.156103         0.690633         2.128143
 H         4.146344         0.983223         0.522811
 H         3.796488        -1.815769         0.936671
 H         4.173495        -1.029643        -1.630883
 H         2.492504        -1.992095        -1.588628
 H         2.638740         1.071363        -2.619924
