19
Iteration:   289charge 0 multiplicity 1
 C        -0.163427         0.223515        -0.152881
 C         1.296909         0.035535         0.120613
 C         2.010982         1.001008         1.087831
 C         3.239405         0.336412         0.405741
 C         3.105439        -1.260465         0.464580
 C         3.249008        -1.152453        -1.128156
 C         2.497767         0.151707        -0.905422
 O         2.506688         1.300159        -1.723713
 O         1.675611        -1.236876         0.690458
 H        -0.804596         0.035935         0.745181
 H        -0.368950         1.257735        -0.433494
 H        -0.548944        -0.400722        -1.043707
 H         1.880769         2.070003         0.850668
 H         1.831237         0.621584         2.090685
 H         4.134042         1.070887         0.402717
 H         3.597658        -2.101559         0.894007
 H         4.250518        -1.102795        -1.293017
 H         2.840531        -1.930429        -1.692386
 H         1.970046         0.979812        -2.496583
