19
Iteration:  4812charge 0 multiplicity 1
 C        -0.103058         0.115220        -0.269311
 C         1.332376        -0.048189         0.260025
 C         2.015447         0.965116         1.163669
 C         3.288936         0.528432         0.535236
 C         3.246238        -1.099139         0.416372
 C         3.061837        -1.073620        -1.134778
 C         2.565641         0.221070        -0.864754
 O         2.305410         1.138328        -1.888876
 O         1.776265        -1.290868         0.681363
 H        -0.870419        -0.058289         0.584407
 H        -0.278393         1.156089        -0.702963
 H        -0.323821        -0.665918        -1.007825
 H         1.708421         1.953354         0.811194
 H         1.978297         0.919745         2.255407
 H         4.234871         0.989099         0.507847
 H         3.877870        -1.903648         0.893289
 H         4.060242        -1.097805        -1.586143
 H         2.604624        -1.958574        -1.591100
 H         1.346228         1.331634        -1.925851
