19
Iteration:  1900charge 0 multiplicity 1
 C        -0.256184         0.021848        -0.158202
 C         1.293165        -0.081210         0.082645
 C         1.881142         0.922455         1.084628
 C         3.298340         0.466571         0.506753
 C         3.114984        -1.187721         0.501608
 C         3.292692        -1.045952        -1.080193
 C         2.538119         0.311002        -0.842731
 O         2.479861         1.360922        -1.827512
 O         1.708704        -1.349172         0.626363
 H        -0.718373        -0.306846         0.713139
 H        -0.497746         0.994832        -0.339380
 H        -0.520342        -0.654141        -1.110344
 H         1.667001         1.918289         0.766905
 H         1.533607         0.929885         2.137541
 H         4.197344         1.083878         0.628461
 H         3.637756        -1.899309         1.128556
 H         4.354611        -0.782684        -1.493322
 H         2.813869        -1.898550        -1.661496
 H         3.094837         1.078326        -2.490398
