19
Iteration:   736
 C        -0.081403         0.080272        -0.236335
 C         1.310086         0.092707         0.111821
 C         2.016088         1.016776         1.189945
 C         3.294647         0.352166         0.466358
 C         3.065106        -1.221803         0.409931
 C         3.296333        -1.139442        -1.078164
 C         2.523914         0.235757        -0.898048
 O         2.334322         1.310925        -1.761462
 O         1.602489        -1.300103         0.660295
 H        -0.594177         0.073406         0.791258
 H        -0.381668         1.023777        -0.640617
 H        -0.345225        -0.835328        -0.874603
 H         1.855025         2.139491         0.781811
 H         1.695640         0.898876         2.284489
 H         4.412385         0.676400         0.488364
 H         3.603244        -1.949300         1.046423
 H         4.352500        -0.756270        -1.375385
 H         3.071648        -2.124215        -1.663205
 H         2.761229         1.219096        -2.608747
