19
Iteration:  4819
 C        -0.142951         0.094041        -0.210330
 C         1.314737        -0.038909         0.156266
 C         2.018172         1.020039         1.174013
 C         3.340721         0.550002         0.531366
 C         3.241030        -1.174119         0.452766
 C         3.140468        -1.077279        -1.174323
 C         2.473757         0.186622        -0.875789
 O         2.328077         1.140780        -1.877888
 O         1.771766        -1.318474         0.685018
 H        -0.765197         0.024653         0.658843
 H        -0.259228         1.062693        -0.707384
 H        -0.393595        -0.528475        -1.042971
 H         1.630564         2.004107         0.770282
 H         1.991268         0.958762         2.326646
 H         4.333847         1.094187         0.666044
 H         3.805292        -1.728366         1.184024
 H         4.072724        -0.867763        -1.785084
 H         2.491083        -1.844250        -1.552118
 H         1.398785         1.467270        -1.886974
