19
Iteration:    66
 C        -0.092010         0.123786        -0.254781
 C         1.344930         0.119008         0.140756
 C         2.073161         1.035417         1.149458
 C         3.249302         0.347192         0.507763
 C         3.065662        -1.305339         0.450699
 C         3.228514        -1.096160        -1.046996
 C         2.512902         0.217298        -0.853928
 O         2.417466         1.192163        -1.893191
 O         1.611149        -1.261954         0.632604
 H        -0.591874        -0.242175         0.709456
 H        -0.691658         1.060074        -0.522672
 H        -0.205650        -0.692210        -1.020077
 H         1.967928         2.071829         0.781945
 H         1.887969         1.126621         2.225893
 H         4.295948         0.644597         0.497750
 H         3.589757        -2.093087         1.024321
 H         4.204873        -0.854966        -1.172125
 H         2.914187        -1.732522        -1.788670
 H         2.106061         2.062192        -1.494366
