19
Iteration:  1541charge 0 multiplicity 1
 C        -0.079930        -0.020033        -0.372786
 C         1.296858        -0.035845         0.217017
 C         1.986826         0.939044         1.217665
 C         3.212260         0.469674         0.601331
 C         3.092980        -1.121516         0.425548
 C         3.136118        -1.019592        -1.074859
 C         2.523691         0.334956        -0.811032
 O         2.402372         1.238162        -1.950872
 O         1.731211        -1.321127         0.661346
 H        -0.925106        -0.474436         0.217786
 H        -0.299744         0.932347        -0.717418
 H        -0.067564        -0.764635        -1.287803
 H         1.809750         2.011475         1.022473
 H         1.739762         0.763767         2.266513
 H         4.287047         0.728026         0.877055
 H         3.644363        -1.830224         1.059630
 H         4.207591        -0.909486        -1.518581
 H         2.734081        -1.919029        -1.595651
 H         3.227135         1.764718        -1.932931
