19
Iteration:  4505
 C        -0.185989         0.018340        -0.072868
 C         1.317072        -0.027101         0.128084
 C         1.965759         1.065506         1.139412
 C         3.344665         0.436399         0.567682
 C         3.130610        -1.138090         0.388307
 C         3.177817        -1.075497        -1.159722
 C         2.569605         0.265065        -0.883807
 O         2.385390         1.283684        -1.871670
 O         1.737682        -1.339899         0.678833
 H        -0.824456        -0.175742         0.836138
 H        -0.364839         1.002767        -0.585738
 H        -0.437470        -0.716703        -0.787109
 H         1.848010         2.073934         0.809821
 H         1.605411         0.863117         2.143808
 H         4.426174         0.616972         0.735447
 H         3.783246        -1.830448         0.808930
 H         4.184736        -1.085761        -1.677279
 H         2.720882        -1.926834        -1.693482
 H         1.786264         1.081224        -2.592709
