19
Iteration:  2661charge 0 multiplicity 1
 C        -0.077330         0.004479        -0.405429
 C         1.322386        -0.015617         0.159464
 C         2.027631         1.008650         1.198122
 C         3.338315         0.495520         0.524131
 C         3.107266        -1.286923         0.390813
 C         3.250233        -1.060267        -1.179490
 C         2.564366         0.273411        -0.784125
 O         2.184751         1.224494        -1.781388
 O         1.725678        -1.284143         0.737741
 H        -0.944975        -0.118181         0.187504
 H        -0.160153         1.056809        -0.899885
 H        -0.225173        -0.738840        -1.201094
 H         2.059188         2.087306         0.965045
 H         1.880677         0.743063         2.258953
 H         4.328801         0.930727         0.539380
 H         3.485852        -2.069944         1.014698
 H         4.244695        -0.824080        -1.465403
 H         2.818332        -1.768229        -1.741795
 H         2.074065         2.152320        -1.601592
