19
Iteration:  3392
 C        -0.259606        -0.077065        -0.024134
 C         1.266922         0.055857         0.127052
 C         1.973613         0.959784         1.158849
 C         3.310201         0.446905         0.505924
 C         3.088225        -1.218633         0.358407
 C         3.236337        -1.055818        -1.172322
 C         2.599804         0.297950        -0.876743
 O         2.519751         1.326142        -1.947214
 O         1.656508        -1.292608         0.725467
 H        -0.715095        -0.133873         1.086167
 H        -0.653328         0.918509        -0.281529
 H        -0.609022        -0.933934        -0.662240
 H         1.650814         1.959611         0.843025
 H         1.905229         0.818512         2.249746
 H         4.231238         0.983132         0.795339
 H         3.762261        -1.790628         0.919177
 H         4.245807        -0.799555        -1.458724
 H         2.763676        -1.780452        -1.886616
 H         2.541910         0.852899        -2.789479
