19
Iteration:  1834charge 0 multiplicity 1
 C        -0.052089         0.033738        -0.397195
 C         1.379784        -0.008414         0.139491
 C         2.005810         0.993236         1.135791
 C         3.297719         0.422666         0.600707
 C         3.039605        -1.175559         0.453938
 C         3.306674        -1.059113        -1.095929
 C         2.542598         0.263399        -0.842559
 O         2.176514         1.257504        -1.767797
 O         1.671882        -1.327067         0.656720
 H        -0.693320        -0.075306         0.377490
 H        -0.194401         0.923233        -0.895104
 H        -0.100794        -0.767677        -1.224307
 H         1.883244         1.985044         0.717142
 H         1.673972         0.939498         2.186472
 H         4.388070         0.594010         0.746091
 H         3.510821        -1.804794         1.168501
 H         4.447645        -0.813978        -1.301943
 H         2.871284        -1.880107        -1.765960
 H         2.911572         1.904264        -1.963718
