19
Iteration:  2821charge 0 multiplicity 1
 C        -0.083743         0.042452        -0.429020
 C         1.319272        -0.031802         0.240594
 C         2.072958         0.962571         1.272211
 C         3.289627         0.446633         0.471541
 C         3.158697        -1.081523         0.392725
 C         3.136966        -1.023901        -1.133602
 C         2.448543         0.227652        -0.836675
 O         2.326091         1.189298        -1.816809
 O         1.764121        -1.337065         0.705789
 H        -1.011901         0.057935         0.272857
 H         0.018328         1.134955        -0.729852
 H        -0.160689        -0.657535        -1.197197
 H         1.772375         1.942646         1.038325
 H         2.048752         0.732292         2.367659
 H         4.216586         0.872074         0.290357
 H         3.703724        -1.833221         0.920099
 H         4.167861        -0.958277        -1.654349
 H         2.432977        -1.817002        -1.567993
 H         1.790081         1.912165        -1.499880
