19
Iteration:   318charge 0 multiplicity 1
 C        -0.143393         0.231165        -0.235860
 C         1.298870        -0.069236         0.171765
 C         2.039125         0.957926         1.127898
 C         3.304332         0.401763         0.487669
 C         3.147894        -1.146634         0.485969
 C         3.115404        -1.228475        -1.138502
 C         2.498786         0.218671        -0.905252
 O         2.498037         1.394975        -1.792143
 O         1.679692        -1.357412         0.690658
 H        -0.887352         0.213216         0.619883
 H        -0.118299         1.263649        -0.630330
 H        -0.593699        -0.408063        -0.990826
 H         1.906766         1.921852         0.664058
 H         1.794428         0.900208         2.222073
 H         4.129279         0.939409         0.657148
 H         3.717138        -1.959867         1.013263
 H         4.107926        -1.342529        -1.691776
 H         2.407424        -2.058590        -1.363527
 H         2.094118         1.082917        -2.600919
