19
Iteration:  2516
 C        -0.094183        -0.023750        -0.319911
 C         1.258135        -0.030456         0.216626
 C         1.937798         0.947428         1.216900
 C         3.245803         0.433419         0.510842
 C         3.150179        -1.124629         0.411234
 C         3.168209        -1.056498        -1.136622
 C         2.525243         0.310183        -0.877253
 O         2.450148         1.284979        -1.828354
 O         1.766002        -1.298177         0.719217
 H        -0.910921        -0.075016         0.340919
 H        -0.355032         0.931634        -1.009441
 H        -0.118046        -0.925991        -0.959482
 H         1.790298         2.030787         1.051222
 H         1.842072         0.707222         2.314397
 H         4.274106         0.847797         0.618449
 H         3.773094        -1.914086         0.936571
 H         4.159331        -0.844986        -1.490258
 H         2.688766        -1.740342        -1.738758
 H         1.636337         1.262322        -2.378325
