19
Iteration:  4181charge 0 multiplicity 1
 C        -0.181321         0.022557        -0.075200
 C         1.253955        -0.110797         0.168285
 C         1.918714         0.953129         1.083697
 C         3.375910         0.450170         0.455889
 C         3.137052        -1.137460         0.458281
 C         3.210385        -1.068056        -1.187940
 C         2.555099         0.306645        -0.944758
 O         2.357444         1.354430        -1.907541
 O         1.735240        -1.368715         0.803792
 H        -0.655186        -0.010246         0.831968
 H        -0.484759         0.878929        -0.646488
 H        -0.569395        -0.758185        -0.722018
 H         1.782145         2.033790         0.873239
 H         1.646188         0.799731         2.194557
 H         4.295692         1.033567         0.473034
 H         3.731254        -1.826214         0.975434
 H         4.275166        -1.075176        -1.641541
 H         2.593850        -1.866663        -1.560381
 H         3.188145         1.557854        -2.420601
