19
Iteration:  3997
 C        -0.159245         0.019303        -0.256959
 C         1.288768        -0.068955         0.206797
 C         2.063017         0.974861         1.177826
 C         3.321661         0.455918         0.390022
 C         3.194894        -1.120159         0.442211
 C         3.157116        -1.168258        -1.147647
 C         2.481474         0.259437        -0.898677
 O         2.289448         1.336569        -1.845379
 O         1.728310        -1.269283         0.804617
 H        -0.655808        -0.063166         0.688583
 H        -0.244589         1.092314        -0.633738
 H        -0.434335        -0.806200        -1.107771
 H         1.748678         1.972899         0.977423
 H         1.815730         0.598260         2.178809
 H         4.367468         0.840644         0.486997
 H         3.845136        -1.828211         0.944419
 H         4.033746        -0.779546        -1.631850
 H         2.564326        -1.964957        -1.523590
 H         3.023902         1.173668        -2.489459
