19
Iteration:   328
 C        -0.126552         0.170453        -0.234315
 C         1.294080         0.032643         0.234320
 C         2.020813         0.978333         1.123396
 C         3.242304         0.357891         0.512773
 C         3.146371        -1.287180         0.418402
 C         3.086165        -1.172488        -1.058873
 C         2.584808         0.297559        -0.892599
 O         2.470577         1.358036        -1.853867
 O         1.690899        -1.316388         0.662723
 H        -0.882718         0.218704         0.551012
 H        -0.123903         1.127025        -0.774918
 H        -0.279146        -0.605447        -0.920455
 H         1.875825         2.012811         0.950277
 H         1.977995         0.943640         2.244419
 H         4.199146         0.709071         0.552301
 H         3.715962        -1.996282         1.093133
 H         4.192553        -1.240402        -1.487076
 H         2.357372        -1.893956        -1.603339
 H         1.937872         1.068827        -2.586959
