19
Iteration:  3573
 C        -0.238576        -0.053166         0.003426
 C         1.282509         0.063929         0.124377
 C         2.046153         0.934132         1.089056
 C         3.293027         0.466646         0.431958
 C         3.096816        -1.154581         0.515608
 C         3.257854        -1.205655        -1.140343
 C         2.496307         0.230303        -0.955253
 O         2.458808         1.434485        -1.872754
 O         1.715898        -1.273132         0.684606
 H        -0.589654        -0.284381         0.995390
 H        -0.779244         0.906707        -0.417452
 H        -0.460581        -0.899392        -0.787609
 H         1.683962         1.915150         0.766765
 H         1.852016         0.609856         2.152797
 H         4.315073         0.949691         0.418520
 H         3.614627        -1.861221         1.200326
 H         4.257535        -0.906538        -1.412678
 H         2.958703        -2.060210        -1.781158
 H         2.074156         1.213434        -2.755620
