19
Iteration:  4171
 C        -0.228230        -0.006143        -0.184237
 C         1.344985        -0.003947         0.176249
 C         2.029121         0.956029         1.080853
 C         3.281625         0.486980         0.496844
 C         3.172440        -1.164971         0.451532
 C         3.160108        -1.131781        -1.154701
 C         2.545250         0.247512        -0.907344
 O         2.290219         1.372215        -1.840160
 O         1.779841        -1.306283         0.742673
 H        -0.762128        -0.057650         0.710191
 H        -0.511240         0.919976        -0.610276
 H        -0.524356        -0.941810        -0.724829
 H         1.746652         1.972003         0.804383
 H         1.806187         0.746937         2.171479
 H         4.294710         0.819453         0.590187
 H         3.804236        -1.762524         1.061258
 H         4.197663        -1.156780        -1.621675
 H         2.594708        -1.819038        -1.771597
 H         3.092708         1.160885        -2.362521
