19
Iteration:  4021charge 0 multiplicity 1
 C        -0.216349        -0.051492        -0.076341
 C         1.261840         0.075484         0.225818
 C         2.037665         0.997484         1.144181
 C         3.269029         0.467947         0.481255
 C         3.132426        -1.107939         0.475519
 C         3.152078        -1.124591        -1.164203
 C         2.519864         0.260259        -0.927524
 O         2.428276         1.261693        -1.845754
 O         1.759745        -1.309460         0.596617
 H        -0.638615        -0.080267         0.940118
 H        -0.525671         0.829963        -0.637399
 H        -0.330747        -1.030904        -0.699886
 H         1.830868         1.952179         0.751259
 H         1.878968         0.894849         2.225425
 H         4.126872         1.117961         0.561123
 H         3.817843        -1.835985         0.930138
 H         4.075211        -0.981035        -1.651956
 H         2.372380        -1.772017        -1.587654
 H         3.032045         1.001009        -2.554757
