19
Iteration:  2815charge 0 multiplicity 1
 C        -0.100814         0.084105        -0.409840
 C         1.252692        -0.096777         0.280747
 C         2.093305         0.964407         1.262861
 C         3.274423         0.433875         0.432236
 C         3.178367        -1.053334         0.450480
 C         3.158307        -1.084955        -1.154919
 C         2.495380         0.263317        -0.845940
 O         2.302395         1.221318        -1.817224
 O         1.772325        -1.358706         0.696867
 H        -0.982703         0.012794         0.206353
 H        -0.068291         1.096551        -0.852344
 H        -0.146447        -0.594050        -1.354410
 H         1.667213         2.000734         0.971658
 H         2.106627         0.949244         2.348534
 H         4.351771         0.853960         0.291652
 H         3.655843        -1.903669         0.994213
 H         4.137821        -1.056127        -1.584873
 H         2.554707        -1.770965        -1.675604
 H         1.836198         2.007486        -1.407997
