19
Iteration:  4379charge 0 multiplicity 1
 C        -0.211555         0.008402         0.037140
 C         1.278348        -0.002800         0.083455
 C         2.014444         0.877937         1.249383
 C         3.229126         0.487282         0.407882
 C         3.105705        -1.093019         0.399639
 C         3.254333        -1.071383        -1.109717
 C         2.519313         0.233769        -0.980045
 O         2.551750         1.320607        -1.967326
 O         1.693986        -1.299064         0.688552
 H        -0.778285        -0.026962         0.925779
 H        -0.671386         0.906212        -0.373231
 H        -0.619042        -0.926945        -0.538450
 H         1.715160         1.955131         1.151857
 H         1.970608         0.489172         2.331660
 H         4.165165         1.059893         0.438549
 H         3.636810        -1.660324         1.250523
 H         4.302302        -0.992005        -1.392013
 H         2.613212        -1.954939        -1.485362
 H         1.993359         1.063440        -2.716801
