19
Iteration:  1079charge 0 multiplicity 1
 C        -0.186368         0.042082        -0.232655
 C         1.315967        -0.026246         0.115422
 C         1.880824         0.942952         1.085354
 C         3.256718         0.440243         0.583423
 C         3.155048        -1.208234         0.446210
 C         3.268921        -1.108569        -1.127846
 C         2.624060         0.286861        -0.887307
 O         2.434483         1.323516        -1.878550
 O         1.671047        -1.331821         0.700979
 H        -0.904717         0.273730         0.579946
 H        -0.531711         0.788180        -1.084758
 H        -0.366037        -0.876694        -0.812585
 H         1.614538         1.934993         0.816912
 H         1.629132         0.936323         2.190634
 H         4.120587         0.902555         0.874820
 H         3.799830        -1.910199         1.043850
 H         4.251585        -1.032574        -1.435783
 H         2.761589        -1.857868        -1.608385
 H         2.683667         2.075245        -1.325755
