19
Iteration:  3589charge 0 multiplicity 1
 C        -0.108245        -0.053972        -0.112495
 C         1.319590        -0.039768         0.177498
 C         2.023558         0.994478         1.126475
 C         3.259965         0.441780         0.426421
 C         3.071899        -1.139454         0.399761
 C         3.202355        -1.087558        -1.107800
 C         2.622676         0.323968        -0.954347
 O         2.407327         1.324296        -1.872225
 O         1.651113        -1.277115         0.736167
 H        -0.622038        -0.371438         0.836178
 H        -0.511316         0.832561        -0.440564
 H        -0.489125        -0.773445        -0.802985
 H         1.947172         2.091257         1.024434
 H         1.894868         0.755899         2.159087
 H         4.315413         0.752449         0.600708
 H         3.831472        -1.779319         0.882577
 H         4.288637        -1.161746        -1.399843
 H         2.604743        -1.879562        -1.591062
 H         1.633049         1.047548        -2.365822
