19
Iteration:  4374charge 0 multiplicity 1
 C        -0.197334         0.002983         0.014685
 C         1.261002        -0.013244         0.153615
 C         1.986751         0.901378         1.243404
 C         3.219510         0.491436         0.411818
 C         3.129126        -1.068393         0.423032
 C         3.244481        -1.064386        -1.137862
 C         2.530392         0.230914        -0.958143
 O         2.563386         1.313223        -1.965632
 O         1.672161        -1.317754         0.667874
 H        -0.597698        -0.053336         1.119835
 H        -0.608356         0.930676        -0.532375
 H        -0.621379        -0.799339        -0.532050
 H         1.711638         1.937338         1.176281
 H         1.915117         0.497139         2.225869
 H         4.177774         1.016178         0.279917
 H         3.756147        -1.723046         0.970688
 H         4.282613        -1.052296        -1.509201
 H         2.613769        -1.887919        -1.327474
 H         2.048098         0.978571        -2.726116
