19
Iteration:   550
 C        -0.147501         0.162734        -0.224796
 C         1.313820         0.061468         0.124544
 C         2.092505         0.989173         1.179676
 C         3.379259         0.330105         0.613461
 C         3.095590        -1.275775         0.421884
 C         3.164642        -1.052486        -1.116700
 C         2.534605         0.295275        -0.851106
 O         2.387494         1.227853        -1.889404
 O         1.639598        -1.232563         0.656168
 H        -0.665247        -0.005351         0.702039
 H        -0.387914         1.069176        -0.701987
 H        -0.377640        -0.719032        -0.840050
 H         2.189839         2.073695         0.848244
 H         1.712775         0.698574         2.160612
 H         4.458930         0.620244         0.708925
 H         3.623497        -2.107998         0.826258
 H         4.256053        -1.189868        -1.567042
 H         2.560630        -1.896446        -1.701880
 H         1.529510         0.948649        -2.271173
