19
Iteration:   776charge 0 multiplicity 1
 C        -0.175257         0.120802        -0.263900
 C         1.344333        -0.028519         0.141209
 C         1.880842         1.001972         1.184084
 C         3.224817         0.461842         0.550349
 C         3.181491        -1.156543         0.398208
 C         3.138695        -1.162074        -1.161877
 C         2.535999         0.217058        -0.835897
 O         2.586037         1.254853        -1.872963
 O         1.713381        -1.307298         0.693284
 H        -0.636591        -0.286830         0.702422
 H        -0.597282         1.122483        -0.379619
 H        -0.359425        -0.545439        -1.126321
 H         1.641247         1.975705         0.853489
 H         1.751706         0.903192         2.212505
 H         4.260290         0.895782         0.633538
 H         3.802256        -1.924899         0.913391
 H         4.061943        -1.045061        -1.630090
 H         2.541832        -1.904861        -1.559652
 H         1.710393         1.726061        -1.699724
