19
Iteration:  3755
 C        -0.179309        -0.011457        -0.118693
 C         1.302041        -0.008583         0.211689
 C         2.080362         1.063536         1.115413
 C         3.369191         0.457378         0.483064
 C         3.073601        -1.188145         0.399642
 C         3.176557        -1.056522        -1.091694
 C         2.465253         0.229302        -0.864774
 O         2.319117         1.215103        -1.808609
 O         1.768860        -1.261089         0.631273
 H        -0.789012        -0.143144         0.754351
 H        -0.345470         0.864135        -0.718084
 H        -0.383056        -0.795174        -0.966532
 H         1.764508         2.110840         0.843385
 H         1.939365         0.991266         2.203941
 H         4.323401         0.924172         0.284601
 H         3.647681        -1.998347         0.865732
 H         4.284362        -0.775136        -1.487948
 H         2.529036        -1.764196        -1.689529
 H         2.693668         1.030134        -2.666570
