19
Iteration:  4015charge 0 multiplicity 1
 C        -0.224729        -0.030578        -0.093290
 C         1.281941         0.042031         0.211465
 C         2.028085         0.985893         1.159775
 C         3.265040         0.469295         0.476466
 C         3.142473        -1.093353         0.426537
 C         3.130759        -1.127957        -1.126840
 C         2.503783         0.280685        -0.934954
 O         2.412712         1.273319        -1.832567
 O         1.781609        -1.330778         0.621962
 H        -0.880055        -0.135948         0.821854
 H        -0.503458         0.777259        -0.791047
 H        -0.333643        -0.820819        -0.774426
 H         1.896700         2.105924         0.888238
 H         2.044927         0.969184         2.263432
 H         4.202796         1.063973         0.416886
 H         3.853720        -1.718190         0.998287
 H         4.191987        -1.276122        -1.564857
 H         2.385520        -1.861132        -1.550251
 H         3.028627         1.039847        -2.572114
