19
Iteration:  4494
 C        -0.095378        -0.011117        -0.215897
 C         1.315765        -0.000232         0.244826
 C         2.060318         1.001350         1.162345
 C         3.279505         0.404855         0.558833
 C         3.120061        -1.160123         0.437253
 C         3.116246        -1.077434        -1.178257
 C         2.549578         0.327325        -0.898071
 O         2.362050         1.270007        -1.876906
 O         1.758605        -1.323520         0.660054
 H        -0.780260        -0.154251         0.672996
 H        -0.438103         0.987207        -0.566001
 H        -0.305955        -0.767735        -0.902249
 H         1.896365         1.978285         0.754440
 H         2.028214         1.099854         2.237675
 H         4.192644         0.989895         0.686040
 H         3.615361        -1.811826         1.075903
 H         4.118198        -0.787613        -1.554982
 H         2.469676        -1.840741        -1.637512
 H         1.653755         0.881498        -2.434290
