19
Iteration:  2845
 C        -0.120062        -0.009139        -0.262763
 C         1.346405         0.098582         0.160602
 C         1.965000         0.880545         1.256483
 C         3.328191         0.386877         0.579496
 C         3.160440        -1.149645         0.409565
 C         3.135819        -1.072193        -1.174051
 C         2.586480         0.342448        -0.861827
 O         2.337260         1.217221        -1.963854
 O         1.743867        -1.251532         0.709110
 H        -0.689287        -0.148905         0.588525
 H        -0.541042         0.923168        -0.813522
 H        -0.119198        -0.921089        -0.753912
 H         1.766335         1.935076         1.066797
 H         1.761810         0.568889         2.282575
 H         4.289408         0.821972         0.844791
 H         3.521014        -2.025262         0.919469
 H         4.254604        -0.963525        -1.536053
 H         2.520627        -1.688025        -1.876529
 H         1.643662         1.852655        -1.746631
