19
Iteration:  3792charge 0 multiplicity 1
 C        -0.084458         0.170032        -0.326185
 C         1.363902         0.019709         0.149138
 C         2.068674         0.909273         1.199436
 C         3.332896         0.451837         0.528365
 C         3.176076        -1.138821         0.425985
 C         3.164995        -1.135193        -1.075623
 C         2.541970         0.235036        -0.912315
 O         2.035691         1.185146        -1.875559
 O         1.824523        -1.267916         0.762733
 H        -0.885769         0.078124         0.426029
 H        -0.132823         1.245090        -0.666260
 H        -0.301985        -0.595011        -1.048883
 H         1.873378         1.991579         1.108468
 H         1.828712         0.466977         2.267317
 H         4.399330         0.795478         0.483791
 H         3.685688        -1.887980         1.033804
 H         4.167293        -1.105400        -1.579276
 H         2.626909        -1.997895        -1.616129
 H         2.726000         1.723302        -2.271573
