19
Iteration:  2693
 C        -0.141930        -0.011424        -0.179331
 C         1.319312        -0.033895         0.127774
 C         1.980466         0.950180         1.099777
 C         3.279842         0.412011         0.539577
 C         3.166777        -1.136339         0.495239
 C         3.274770        -1.120780        -1.149559
 C         2.494715         0.277744        -0.872195
 O         2.382159         1.341778        -1.809480
 O         1.702850        -1.314289         0.597924
 H        -0.754036         0.013822         0.674502
 H        -0.365404         0.927222        -0.897564
 H        -0.378037        -0.789624        -0.892925
 H         2.040104         2.028981         0.875055
 H         1.714202         0.878597         2.182225
 H         4.255703         0.860845         0.600228
 H         3.654450        -1.817861         1.190094
 H         4.190950        -0.942228        -1.682693
 H         2.794130        -1.947226        -1.548092
 H         1.531700         1.829463        -1.660046
