19
Iteration:  1610charge 0 multiplicity 1
 C        -0.187355         0.079652        -0.260167
 C         1.310758        -0.101510         0.053441
 C         1.888698         1.010630         1.085297
 C         3.210469         0.495673         0.513333
 C         3.114815        -1.151567         0.518296
 C         3.283181        -1.036411        -1.091639
 C         2.540991         0.250998        -0.887482
 O         2.414617         1.293047        -1.695552
 O         1.750831        -1.411601         0.622176
 H        -0.735870         0.066553         0.742599
 H        -0.177507         1.064862        -0.791399
 H        -0.470598        -0.719804        -0.785483
 H         1.492888         1.960965         0.808928
 H         1.722578         0.798314         2.171308
 H         4.133096         0.961532         0.727033
 H         3.691518        -1.901829         1.063090
 H         4.397979        -0.772507        -1.544157
 H         2.839409        -1.806982        -1.794351
 H         3.044371         1.207080        -2.398663
