19
Iteration:  1136
 C        -0.151310         0.044828        -0.301192
 C         1.261335        -0.046545         0.076499
 C         1.926498         0.868776         1.227405
 C         3.203611         0.437957         0.500476
 C         3.110578        -1.126621         0.468072
 C         3.307430        -1.118105        -1.055077
 C         2.594452         0.318295        -0.888565
 O         2.377530         1.330052        -1.886544
 O         1.702661        -1.282004         0.682971
 H        -0.906929        -0.189344         0.536943
 H        -0.343779         1.083765        -0.532567
 H        -0.504199        -0.630050        -1.125275
 H         1.731125         1.946352         1.012114
 H         1.913011         0.476481         2.275622
 H         4.174098         0.855456         0.774698
 H         3.685863        -1.653011         1.219223
 H         4.340164        -1.108783        -1.259789
 H         2.861341        -2.020033        -1.474574
 H         3.255668         1.465197        -2.311186
