19
Iteration:  4518
 C        -0.219118         0.049605        -0.040729
 C         1.303134         0.004008         0.129469
 C         1.939496         0.922746         1.065613
 C         3.257002         0.440009         0.433345
 C         3.200064        -1.180834         0.378634
 C         3.287225        -1.115249        -1.141595
 C         2.523822         0.251942        -0.913310
 O         2.453666         1.316400        -1.807021
 O         1.712006        -1.275096         0.677373
 H        -0.515565        -0.008194         1.028346
 H        -0.666525         1.071656        -0.283499
 H        -0.698981        -0.717925        -0.543658
 H         1.769618         1.945019         0.812771
 H         1.696185         0.827443         2.141127
 H         4.208077         1.001976         0.576040
 H         3.748388        -1.867233         1.085593
 H         4.369361        -0.963366        -1.355292
 H         2.583671        -1.756629        -1.642686
 H         1.890182         0.876079        -2.492418
