19
Iteration:   386charge 0 multiplicity 1
 C        -0.078114         0.157563        -0.240787
 C         1.297476         0.022521         0.186866
 C         2.045131         0.991831         1.130346
 C         3.302275         0.442315         0.519246
 C         3.064889        -1.188371         0.427050
 C         3.119627        -1.236036        -1.099608
 C         2.542591         0.268713        -0.899720
 O         2.482143         1.328796        -1.814103
 O         1.669670        -1.357696         0.663816
 H        -0.823294        -0.022805         0.632943
 H        -0.256719         1.166594        -0.619478
 H        -0.350296        -0.624659        -1.046936
 H         1.751957         1.944922         0.644791
 H         1.967847         0.814816         2.201037
 H         4.319078         0.862535         0.527143
 H         3.645732        -1.858531         1.028125
 H         4.152580        -1.304010        -1.382649
 H         2.592620        -2.076279        -1.541211
 H         1.578062         1.592145        -2.124038
