19
Iteration:  1861charge 0 multiplicity 1
 C        -0.156274        -0.033348        -0.374468
 C         1.272435         0.036788         0.146542
 C         1.972503         0.897094         1.316674
 C         3.292068         0.496650         0.596247
 C         3.165446        -1.159554         0.427910
 C         3.195625        -1.051370        -1.125739
 C         2.523701         0.321424        -0.821375
 O         2.384979         1.212122        -1.916501
 O         1.710184        -1.279451         0.663845
 H        -1.016723        -0.313568         0.429040
 H        -0.448252         1.028264        -0.877664
 H        -0.249489        -0.695782        -1.175258
 H         1.873607         2.001140         1.134758
 H         1.693259         0.467345         2.296539
 H         4.318532         0.843837         0.638071
 H         3.647274        -1.814586         1.249996
 H         4.112946        -0.841424        -1.596222
 H         2.621767        -1.778569        -1.682643
 H         3.261963         1.622445        -2.168783
