19
Iteration:   836charge 0 multiplicity 1
 C        -0.098347         0.042137        -0.246584
 C         1.292604         0.042845         0.136686
 C         1.963743         0.959608         1.147651
 C         3.274151         0.382414         0.486902
 C         3.078027        -1.140195         0.434172
 C         3.285538        -1.102109        -1.047951
 C         2.544124         0.212564        -0.833466
 O         2.332072         1.301213        -1.794154
 O         1.664661        -1.248723         0.613791
 H        -0.779379        -0.265820         0.525081
 H        -0.342167         1.039936        -0.754134
 H        -0.199671        -0.730141        -1.038569
 H         1.844216         2.089064         0.926636
 H         1.762686         0.713913         2.272347
 H         4.322478         0.602968         0.594394
 H         3.606421        -1.869706         1.019959
 H         4.360302        -0.854856        -1.249912
 H         2.929161        -1.993542        -1.636307
 H         2.987436         1.201106        -2.506030
