19
Iteration:   887charge 0 multiplicity 1
 C        -0.066574         0.110776        -0.335296
 C         1.267372        -0.057423         0.235582
 C         1.960690         0.873165         1.205580
 C         3.229850         0.473553         0.466226
 C         3.113030        -1.140562         0.457872
 C         3.235503        -1.084543        -1.126409
 C         2.551717         0.221141        -0.897711
 O         2.470016         1.372778        -1.812016
 O         1.637991        -1.356797         0.714466
 H        -0.869481         0.236887         0.467493
 H        -0.120742         0.833236        -1.112273
 H        -0.325406        -0.864114        -0.852384
 H         1.764623         1.903289         0.929246
 H         1.785611         0.782563         2.204795
 H         4.216556         1.100979         0.611346
 H         3.761530        -1.815314         1.040834
 H         4.301895        -0.929789        -1.306514
 H         2.802092        -1.867322        -1.689689
 H         1.983483         1.145845        -2.601156
