19
Iteration:  2167charge 0 multiplicity 1
 C        -0.106817         0.152012        -0.412819
 C         1.280906        -0.025494         0.160351
 C         1.916258         0.930071         1.200378
 C         3.262827         0.429255         0.519417
 C         3.174467        -1.099678         0.474971
 C         3.245257        -1.150232        -1.171697
 C         2.496715         0.210843        -0.811453
 O         2.229531         1.274924        -1.744125
 O         1.809494        -1.320527         0.706248
 H        -1.039926         0.251660         0.211280
 H        -0.052339         1.126659        -1.138092
 H        -0.202442        -0.652299        -1.200023
 H         1.884098         2.035805         1.097310
 H         1.814411         0.497583         2.159935
 H         4.330612         0.778467         0.400967
 H         3.835323        -1.624702         1.091042
 H         4.311728        -1.103760        -1.588383
 H         2.698935        -2.031629        -1.641465
 H         3.076612         1.622245        -2.091626
