19
Iteration:  2846
 C        -0.130317        -0.015474        -0.250415
 C         1.350643         0.098268         0.158272
 C         1.965708         0.881132         1.261769
 C         3.327457         0.380529         0.586834
 C         3.147160        -1.146086         0.408703
 C         3.147645        -1.064836        -1.175618
 C         2.591696         0.338595        -0.869845
 O         2.338642         1.221987        -1.970649
 O         1.741877        -1.249941         0.705527
 H        -0.677722        -0.125591         0.555405
 H        -0.536021         0.901831        -0.778809
 H        -0.146577        -0.951309        -0.767191
 H         1.759343         1.957202         1.038365
 H         1.768164         0.571274         2.279329
 H         4.330878         0.822705         0.837843
 H         3.534692        -2.032194         0.932834
 H         4.246342        -0.993381        -1.528128
 H         2.513523        -1.672891        -1.836460
 H         1.652104         1.840120        -1.738256
