19
Iteration:  4768charge 0 multiplicity 1
 C        -0.141339        -0.015549        -0.247730
 C         1.281198         0.028196         0.165984
 C         2.117338         0.992207         1.122015
 C         3.370738         0.422710         0.370377
 C         3.108124        -1.112728         0.382291
 C         3.216814        -1.124722        -1.088296
 C         2.502089         0.261783        -0.847023
 O         2.268668         1.243518        -1.746700
 O         1.711339        -1.217285         0.747506
 H        -0.834886        -0.335832         0.619520
 H        -0.452513         0.991229        -0.707966
 H        -0.226680        -0.746612        -1.039220
 H         2.121081         2.056584         0.892143
 H         1.947020         0.827024         2.194553
 H         4.311564         0.930963         0.490055
 H         3.688363        -1.852964         1.009169
 H         4.314936        -1.096796        -1.385155
 H         2.724925        -1.887887        -1.695941
 H         1.791379         0.812988        -2.480411
