19
Iteration:  3711
 C        -0.208765        -0.050305         0.021752
 C         1.247977        -0.034969         0.160731
 C         1.973840         0.928894         1.118345
 C         3.217157         0.531195         0.342491
 C         3.123475        -1.160991         0.387839
 C         3.145505        -1.115679        -1.127963
 C         2.532980         0.303340        -0.959192
 O         2.592361         1.343289        -1.870648
 O         1.759265        -1.268236         0.734248
 H        -0.551498        -0.139008         1.022819
 H        -0.595422         0.860335        -0.306550
 H        -0.753372        -0.753715        -0.654872
 H         1.717215         1.992008         0.814142
 H         1.781770         0.744015         2.173677
 H         4.215204         0.867619         0.390127
 H         3.639666        -1.919149         1.004322
 H         4.318854        -1.096612        -1.165789
 H         2.630912        -1.979642        -1.619963
 H         2.121043         0.948660        -2.612626
