19
Iteration:  2879
 C        -0.250273         0.020574        -0.018087
 C         1.290450         0.033125         0.169281
 C         1.971172         0.955396         1.150457
 C         3.265969         0.440005         0.448147
 C         3.117655        -1.161019         0.434255
 C         3.292559        -1.012973        -1.116697
 C         2.487802         0.236117        -0.859697
 O         2.522669         1.229392        -1.886298
 O         1.695389        -1.358295         0.526116
 H        -0.658944        -0.152680         0.925590
 H        -0.798694         0.925525        -0.452643
 H        -0.547121        -0.788237        -0.701420
 H         1.644952         1.934961         0.715908
 H         1.994006         0.942249         2.225994
 H         4.291429         0.960057         0.414048
 H         3.728997        -1.844914         1.074747
 H         4.375111        -0.675771        -1.348287
 H         2.964692        -1.830638        -1.777365
 H         1.944169         1.983736        -1.620833
