19
Iteration:  4806charge 0 multiplicity 1
 C        -0.069043         0.114510        -0.287426
 C         1.342893        -0.032388         0.293691
 C         2.012680         0.944769         1.168231
 C         3.272119         0.468393         0.478851
 C         3.203876        -1.055491         0.385297
 C         3.099204        -1.132881        -1.096398
 C         2.553851         0.323620        -0.843511
 O         2.290414         1.147107        -1.902167
 O         1.782923        -1.299006         0.708269
 H        -0.848930        -0.033141         0.408759
 H        -0.260673         1.099071        -0.629728
 H        -0.245651        -0.761105        -1.000823
 H         1.861576         2.002126         0.889932
 H         1.828384         0.832709         2.248639
 H         4.283159         0.971001         0.492909
 H         3.825366        -1.863090         0.723385
 H         4.134173        -1.131770        -1.480819
 H         2.465570        -1.941513        -1.591217
 H         1.330010         1.223360        -1.946842
