19
Iteration:  1680
 C        -0.128337         0.055574        -0.450996
 C         1.335941         0.030421         0.175548
 C         1.939570         0.958789         1.177827
 C         3.258325         0.442948         0.579954
 C         3.155927        -1.188380         0.491097
 C         3.272369        -1.083865        -1.104338
 C         2.544412         0.204030        -0.831512
 O         2.246925         1.265947        -1.770786
 O         1.738171        -1.283561         0.646855
 H        -0.796546        -0.352373         0.207125
 H        -0.283412         1.104047        -0.699158
 H        -0.039027        -0.666236        -1.362664
 H         1.693684         2.057387         0.933845
 H         1.730747         0.690345         2.228135
 H         4.295628         0.911227         0.718506
 H         3.671713        -1.934967         1.103460
 H         4.290963        -0.907497        -1.577033
 H         2.687601        -1.874125        -1.675060
 H         2.967675         1.752734        -2.144839
