19
Iteration:  1973
 C        -0.101766         0.062607        -0.447792
 C         1.263919        -0.010286         0.246719
 C         1.909597         0.843080         1.259461
 C         3.249247         0.519559         0.576907
 C         3.252527        -1.121707         0.413347
 C         3.185338        -1.094933        -1.185497
 C         2.489837         0.275835        -0.824318
 O         2.341970         1.228984        -1.865119
 O         1.752244        -1.284393         0.729545
 H        -0.930656         0.086068         0.400138
 H        -0.144398         1.018843        -1.000243
 H        -0.024787        -0.744904        -1.169052
 H         1.556551         1.916267         1.164001
 H         1.743682         0.555501         2.315933
 H         4.269103         1.007640         0.556826
 H         3.779483        -1.813180         1.008447
 H         4.041318        -1.119400        -1.777486
 H         2.492723        -1.799279        -1.581777
 H         3.247155         1.621881        -2.014534
