19
Iteration:  4820charge 0 multiplicity 1
 C        -0.144520         0.087605        -0.206722
 C         1.316530        -0.036792         0.144347
 C         2.018801         1.026179         1.172711
 C         3.346736         0.548326         0.525365
 C         3.234682        -1.178096         0.455593
 C         3.158116        -1.087195        -1.177594
 C         2.457239         0.194768        -0.872922
 O         2.330849         1.141501        -1.877440
 O         1.771948        -1.323862         0.687261
 H        -0.780948         0.031672         0.688735
 H        -0.263292         1.082236        -0.700059
 H        -0.403084        -0.511561        -1.013382
 H         1.642024         2.021672         0.778464
 H         1.968128         0.959029         2.330492
 H         4.317463         1.086596         0.679936
 H         3.793467        -1.715391         1.210881
 H         4.075130        -0.841969        -1.801920
 H         2.480873        -1.812028        -1.546309
 H         1.409208         1.483414        -1.881078
