19
Iteration:  4668charge 0 multiplicity 1
 C        -0.138528         0.013509        -0.153834
 C         1.319098         0.010342         0.137086
 C         2.047321         1.012810         1.140136
 C         3.284317         0.484783         0.539868
 C         3.130165        -1.182432         0.447894
 C         3.200639        -1.082096        -1.160427
 C         2.587719         0.293366        -0.850645
 O         2.354721         1.234021        -1.885632
 O         1.697679        -1.356101         0.681403
 H        -0.704781        -0.019598         0.847309
 H        -0.369398         1.082975        -0.539580
 H        -0.579775        -0.801048        -0.707733
 H         1.996587         2.041445         0.787598
 H         1.612445         0.918890         2.155535
 H         4.244100         1.066771         0.521958
 H         3.861667        -1.664793         1.090203
 H         4.225547        -1.034176        -1.639315
 H         2.664364        -1.769882        -1.800310
 H         1.574039         1.059988        -2.453470
