19
Iteration:  2289
 C        -0.145438        -0.004346        -0.347126
 C         1.268173         0.058589         0.098240
 C         2.001112         0.952351         1.169857
 C         3.269861         0.380013         0.557977
 C         3.110615        -1.126652         0.419809
 C         3.216794        -1.016719        -1.071756
 C         2.550410         0.268758        -0.819534
 O         2.410609         1.264660        -1.803023
 O         1.748849        -1.314055         0.664904
 H        -0.806527        -0.570571         0.489384
 H        -0.594599         1.003032        -0.639086
 H        -0.301303        -0.697530        -1.113279
 H         1.922646         1.981010         0.861884
 H         1.981975         0.696712         2.221651
 H         4.217941         0.867997         0.821047
 H         3.695928        -1.851257         0.997107
 H         4.320421        -0.702550        -1.281922
 H         2.732924        -1.666448        -1.858178
 H         1.553098         1.122666        -2.182249
