19
Iteration:   920charge 0 multiplicity 1
 C        -0.260825        -0.042738        -0.281943
 C         1.271388         0.092369         0.144855
 C         1.967949         0.919684         1.230332
 C         3.290121         0.424921         0.596982
 C         3.129128        -1.102993         0.446246
 C         3.263437        -1.125306        -1.124917
 C         2.620941         0.288836        -0.857875
 O         2.520607         1.268224        -1.833862
 O         1.638257        -1.242778         0.568257
 H        -0.925865        -0.176001         0.632830
 H        -0.744729         0.761742        -0.783519
 H        -0.109924        -0.964815        -0.903406
 H         2.070744         1.951984         0.895019
 H         1.734525         0.806918         2.214003
 H         4.364340         0.922949         0.750966
 H         3.623043        -1.930854         0.957564
 H         4.335215        -1.138582        -1.418800
 H         2.685567        -1.849328        -1.707988
 H         1.572565         1.292931        -2.038957
