19
Iteration:  3231charge 0 multiplicity 1
 C        -0.202443         0.015246         0.121282
 C         1.294189        -0.002987         0.162669
 C         1.978019         1.033678         1.044212
 C         3.317741         0.386823         0.511733
 C         3.052821        -1.182890         0.427046
 C         3.214732        -1.041927        -1.153923
 C         2.626296         0.340651        -0.872024
 O         2.540953         1.224980        -1.926375
 O         1.640678        -1.350263         0.567748
 H        -0.613824        -0.274330         1.013604
 H        -0.643775         0.951588        -0.072439
 H        -0.541224        -0.718438        -0.767360
 H         1.860153         1.939845         0.372736
 H         1.609147         1.240458         2.055390
 H         4.290061         0.833181         0.746983
 H         3.704896        -1.878858         0.921373
 H         4.255117        -1.130724        -1.470230
 H         2.659582        -1.729754        -1.850158
 H         1.673314         1.718571        -1.916085
