19
Iteration:  4297charge 0 multiplicity 1
 C        -0.095786         0.027906        -0.345782
 C         1.353699        -0.001487         0.190808
 C         2.090975         1.061036         1.173362
 C         3.338438         0.414838         0.359152
 C         3.248490        -1.153754         0.408143
 C         3.158758        -1.184222        -1.065171
 C         2.484694         0.242908        -0.840748
 O         2.221178         1.346836        -1.737410
 O         1.682900        -1.307859         0.705910
 H        -0.682033        -0.320496         0.605791
 H        -0.429211         1.038030        -0.830140
 H        -0.216666        -0.664490        -1.175371
 H         2.022271         2.155571         1.086170
 H         2.077577         0.794130         2.201485
 H         4.352966         0.876515         0.453399
 H         3.789608        -1.744425         1.174252
 H         4.149572        -1.161506        -1.540492
 H         2.582268        -1.988491        -1.525977
 H         1.462839         1.043913        -2.303446
