19
Iteration:  3612charge 0 multiplicity 1
 C        -0.121861         0.084962        -0.266250
 C         1.321048         0.022826         0.221160
 C         2.012458         0.994979         1.183595
 C         3.396291         0.468762         0.537276
 C         3.213866        -1.186646         0.413605
 C         3.130282        -1.081170        -1.160441
 C         2.402106         0.239355        -0.835987
 O         2.338846         1.174398        -1.835774
 O         1.793398        -1.305024         0.685661
 H        -0.913010        -0.259198         0.378193
 H        -0.467233         0.929569        -0.799728
 H        -0.268699        -0.688386        -1.129796
 H         1.983523         2.101920         0.827834
 H         1.713138         1.092134         2.246412
 H         4.321104         0.995507         0.654383
 H         3.864653        -1.834352         1.052740
 H         4.038604        -0.768536        -1.799882
 H         2.447436        -1.768277        -1.694562
 H         1.449956         1.301820        -2.247587
