19
Iteration:   122charge 0 multiplicity 1
 C        -0.096979         0.152335        -0.205993
 C         1.251492         0.000169         0.208475
 C         1.936425         0.968403         1.208128
 C         3.282810         0.416277         0.503076
 C         3.164518        -1.125200         0.386572
 C         3.091367        -1.127256        -1.153536
 C         2.411527         0.187093        -0.876365
 O         2.645520         1.208512        -1.882699
 O         1.700287        -1.287333         0.709921
 H        -0.945369         0.192576         0.571643
 H        -0.134495         1.162387        -0.723067
 H        -0.382486        -0.566738        -0.962517
 H         1.653029         1.969851         0.955366
 H         1.663190         0.708692         2.264471
 H         4.247457         0.781409         0.620264
 H         3.804090        -1.865934         1.000427
 H         4.012437        -0.858460        -1.505157
 H         2.690378        -1.914210        -1.689316
 H         1.901375         1.519288        -2.415017
