19
Iteration:  1761charge 0 multiplicity 1
 C        -0.197079        -0.106727        -0.249966
 C         1.273423         0.064864         0.158702
 C         1.931002         0.910921         1.260259
 C         3.290039         0.459944         0.629773
 C         3.057356        -1.127559         0.439874
 C         3.199427        -0.990626        -1.132952
 C         2.595608         0.365519        -0.831937
 O         2.464451         1.187079        -1.950700
 O         1.678902        -1.291274         0.572058
 H        -0.796055        -0.167151         0.778674
 H        -0.485727         0.770130        -0.945336
 H        -0.133793        -0.949858        -1.003238
 H         1.764192         1.972987         1.113351
 H         1.708599         0.641047         2.355785
 H         4.248185         0.794813         0.918546
 H         3.730347        -1.776381         1.080900
 H         4.190467        -0.764076        -1.238718
 H         2.823816        -1.640336        -1.885135
 H         3.378925         1.405042        -2.213648
