19
Iteration:  2995charge 0 multiplicity 1
 C         0.001816         0.118423        -0.285632
 C         1.358371        -0.007889         0.122381
 C         1.926183         0.992363         1.126765
 C         3.278394         0.456518         0.501181
 C         3.138325        -1.154409         0.487823
 C         3.145490        -1.106563        -1.194943
 C         2.523102         0.237776        -0.879517
 O         2.309706         1.287092        -1.800855
 O         1.765734        -1.413822         0.747125
 H        -0.715814         0.081359         0.683774
 H        -0.180930         1.095680        -0.750357
 H        -0.100600        -0.616648        -1.063184
 H         1.881030         2.089197         0.872636
 H         1.727313         0.710290         2.245105
 H         4.198381         0.916986         0.500419
 H         3.895916        -1.762978         0.967571
 H         4.107007        -1.263974        -1.698954
 H         2.545306        -1.918303        -1.598973
 H         1.505115         1.790367        -1.639177
