19
Iteration:  2923charge 0 multiplicity 1
 C        -0.205377         0.038379        -0.086915
 C         1.263064        -0.051658         0.127112
 C         1.972568         0.890136         1.143674
 C         3.268380         0.478147         0.492150
 C         3.113174        -1.143871         0.425239
 C         3.181722        -1.054803        -1.086833
 C         2.592018         0.353409        -0.919223
 O         2.456685         1.280805        -1.967198
 O         1.763993        -1.389612         0.691624
 H        -0.710059        -0.335889         0.827916
 H        -0.587106         1.132619        -0.259852
 H        -0.437800        -0.664434        -0.985444
 H         1.765397         1.953016         0.873189
 H         1.563609         0.603729         2.082252
 H         4.344614         0.917996         0.615186
 H         3.641694        -1.883618         1.101305
 H         4.228389        -1.049728        -1.579515
 H         2.481418        -1.717649        -1.631447
 H         2.485111         2.196962        -1.590857
