19
Iteration:  1237charge 0 multiplicity 1
 C        -0.087116         0.033753        -0.299492
 C         1.277826        -0.073093         0.174422
 C         1.908848         1.000105         1.133327
 C         3.213059         0.523652         0.540093
 C         3.110169        -1.123351         0.451396
 C         3.196219        -1.080344        -1.088230
 C         2.519494         0.286803        -0.806339
 O         2.438491         1.271527        -1.823948
 O         1.739959        -1.416988         0.627601
 H        -0.897420        -0.029351         0.541482
 H        -0.136740         0.876547        -0.895254
 H        -0.320309        -0.780642        -1.019813
 H         1.545681         2.030055         0.745550
 H         1.677258         0.846305         2.208188
 H         4.330006         0.830631         0.753268
 H         3.766791        -1.709348         1.109926
 H         4.113077        -0.895489        -1.612473
 H         2.601883        -1.741535        -1.745841
 H         3.325990         1.619069        -2.008726
