19
Iteration:  2662charge 0 multiplicity 1
 C        -0.068276         0.006110        -0.403206
 C         1.323985        -0.014514         0.157933
 C         2.027519         1.008892         1.194933
 C         3.337471         0.498076         0.516525
 C         3.097878        -1.285068         0.395290
 C         3.248121        -1.059618        -1.170532
 C         2.569823         0.275118        -0.782741
 O         2.185570         1.226202        -1.778045
 O         1.722871        -1.289558         0.731283
 H        -0.979389        -0.125758         0.225382
 H        -0.162424         0.995791        -0.893931
 H        -0.258912        -0.740345        -1.213506
 H         2.065599         2.091241         0.958485
 H         1.897913         0.773800         2.245929
 H         4.354409         0.914978         0.537014
 H         3.501210        -2.060393         0.992965
 H         4.255263        -0.818734        -1.451825
 H         2.835816        -1.796322        -1.768990
 H         2.039806         2.159418        -1.582452
