19
Iteration:   663
 C        -0.176066         0.100240        -0.267835
 C         1.282223         0.017430         0.151112
 C         2.041744         0.959967         1.196733
 C         3.346847         0.385735         0.460259
 C         3.128178        -1.171843         0.385398
 C         3.187418        -1.119622        -1.150718
 C         2.503811         0.218173        -0.816657
 O         2.492290         1.244120        -1.785223
 O         1.632358        -1.223478         0.700479
 H        -0.796496         0.162965         0.584495
 H        -0.436236         1.132567        -0.647607
 H        -0.499129        -0.691836        -0.957357
 H         2.093581         1.982020         1.001576
 H         1.783080         0.660418         2.211269
 H         4.403446         0.729961         0.407007
 H         3.715371        -1.835735         1.050710
 H         4.175411        -0.947592        -1.558016
 H         2.618459        -1.920724        -1.680825
 H         1.709610         1.252048        -2.356167
