19
Iteration:  2234charge 0 multiplicity 1
 C        -0.294662        -0.072859        -0.107069
 C         1.207489         0.011545         0.063247
 C         1.941380         0.968511         1.112445
 C         3.281804         0.407231         0.511223
 C         3.154267        -1.135358         0.447508
 C         3.337054        -1.082485        -1.057740
 C         2.519531         0.253966        -0.886778
 O         2.573108         1.387991        -1.800393
 O         1.687608        -1.317615         0.605562
 H        -0.866304        -0.258564         0.917183
 H        -0.704450         0.979607        -0.374805
 H        -0.608091        -0.643966        -0.915755
 H         1.687418         2.029281         0.904188
 H         1.736733         0.697727         2.145810
 H         4.230469         0.982413         0.390801
 H         3.604841        -1.892104         1.051037
 H         4.347747        -0.728279        -1.486481
 H         2.966974        -1.917870        -1.732263
 H         2.205371         0.957437        -2.581249
