19
Iteration:  1518
 C        -0.090705         0.085433        -0.470903
 C         1.319371        -0.006791         0.114960
 C         1.900001         0.897803         1.253039
 C         3.245377         0.452587         0.498082
 C         3.235284        -1.112597         0.486420
 C         3.199897        -1.154286        -1.083657
 C         2.564975         0.261745        -0.878429
 O         2.302914         1.311713        -1.797028
 O         1.721649        -1.301160         0.766732
 H        -0.831531        -0.377990         0.154526
 H        -0.410041         1.048343        -0.744085
 H        -0.284333        -0.630454        -1.428661
 H         1.640413         1.992066         1.148092
 H         1.559411         0.605139         2.230607
 H         4.264836         1.009951         0.587935
 H         3.773510        -1.897661         1.040592
 H         4.184077        -1.221134        -1.618004
 H         2.618925        -1.989211        -1.565605
 H         3.125034         1.742246        -2.152489
