19
Iteration:  2956charge 0 multiplicity 1
 C        -0.121590        -0.012622        -0.345972
 C         1.327080         0.079671         0.184839
 C         2.127146         0.980692         1.308362
 C         3.322916         0.390106         0.507349
 C         3.113831        -1.126885         0.395992
 C         3.172853        -1.037261        -1.159238
 C         2.415863         0.248289        -0.795608
 O         2.309935         1.166067        -1.872143
 O         1.742713        -1.268984         0.674911
 H        -0.783428        -0.452637         0.403627
 H        -0.760804         0.752002        -0.951923
 H        -0.030717        -0.768638        -1.245709
 H         2.133268         2.076669         1.140738
 H         1.793786         0.814377         2.288731
 H         4.425674         0.822017         0.525203
 H         3.515157        -1.963776         1.054666
 H         4.141373        -0.676152        -1.670933
 H         2.667559        -1.801035        -1.803112
 H         2.284477         2.110682        -1.538286
