19
Iteration:  1465
 C        -0.175092         0.002927        -0.277438
 C         1.319434         0.059565         0.112085
 C         1.957999         0.983974         1.128554
 C         3.256324         0.379714         0.621727
 C         3.062432        -1.184853         0.446671
 C         3.363633        -1.046455        -1.055759
 C         2.571113         0.302169        -0.856540
 O         2.295544         1.254819        -1.859881
 O         1.695527        -1.327977         0.619423
 H        -0.833335         0.021529         0.676215
 H        -0.321654         0.877349        -0.815041
 H        -0.446784        -0.900548        -0.855002
 H         1.849809         2.033280         0.765867
 H         1.634885         0.868103         2.167474
 H         4.239404         0.846913         0.968990
 H         3.552709        -2.018289         0.978018
 H         4.565564        -0.814313        -1.077032
 H         2.986765        -1.687223        -1.929330
 H         3.163315         1.511645        -2.271975
