19
Iteration:  4480
 C        -0.069654         0.005538        -0.300082
 C         1.315067         0.016214         0.229342
 C         2.101169         0.959612         1.227274
 C         3.338681         0.475235         0.394207
 C         3.179060        -1.159297         0.398145
 C         3.141403        -1.051471        -1.086375
 C         2.449566         0.261202        -0.788443
 O         2.322123         1.259430        -1.840061
 O         1.670806        -1.272470         0.713674
 H        -0.885407        -0.352955         0.370049
 H        -0.343662         0.936364        -0.744619
 H         0.032014        -0.867809        -1.115465
 H         1.946263         2.071767         0.980188
 H         1.917478         0.762470         2.290451
 H         4.403409         0.779881         0.389845
 H         3.857604        -1.866699         0.882904
 H         4.134044        -1.067327        -1.581245
 H         2.527094        -1.806548        -1.673940
 H         1.587309         1.075965        -2.461680
