19
Iteration:  3181
 C        -0.219440         0.077282        -0.155965
 C         1.256880        -0.012648         0.214325
 C         2.059327         0.897936         1.192054
 C         3.276557         0.465147         0.466411
 C         3.097725        -1.197590         0.416109
 C         3.169222        -1.085179        -1.141442
 C         2.576511         0.289799        -0.992743
 O         2.480432         1.261439        -1.977549
 O         1.724138        -1.289128         0.781314
 H        -0.869007         0.113772         0.840217
 H        -0.483673         1.100990        -0.548122
 H        -0.561666        -0.717406        -0.751240
 H         1.648960         1.912589         1.174885
 H         2.153868         0.421736         2.243273
 H         4.279435         0.798292         0.634675
 H         3.882450        -1.859142         0.939418
 H         4.168449        -0.987583        -1.634953
 H         2.724111        -1.816303        -1.782697
 H         1.715851         1.792062        -1.772724
