19
Iteration:  2002
 C        -0.074385         0.027159        -0.413657
 C         1.287702        -0.001443         0.176637
 C         1.991290         0.905487         1.183919
 C         3.277395         0.459538         0.553125
 C         3.149517        -1.123370         0.465192
 C         3.246368        -1.020282        -1.117828
 C         2.512223         0.281882        -0.839856
 O         2.289931         1.230989        -1.854148
 O         1.688328        -1.374351         0.726741
 H        -0.775929        -0.033330         0.423141
 H        -0.107435         1.037870        -0.966234
 H        -0.171329        -0.751758        -1.172082
 H         1.884582         1.975481         0.825446
 H         1.768859         0.769374         2.247426
 H         4.283167         0.869126         0.599570
 H         3.804766        -1.807007         1.102239
 H         4.309498        -0.955410        -1.600796
 H         2.606645        -1.788368        -1.680445
 H         2.582883         2.156356        -1.632733
