19
Iteration:  4574
 C        -0.192844        -0.045144        -0.057193
 C         1.314684         0.001955         0.140727
 C         1.982374         1.006006         1.126326
 C         3.350260         0.457259         0.551512
 C         3.100094        -1.118457         0.374761
 C         3.138587        -1.060370        -1.169710
 C         2.529368         0.263028        -0.913286
 O         2.477460         1.266000        -1.884276
 O         1.765859        -1.293018         0.686512
 H        -0.859066        -0.190002         0.811834
 H        -0.487639         0.976373        -0.398102
 H        -0.685282        -0.781802        -0.697428
 H         1.684792         2.036105         0.880149
 H         1.617568         0.668967         2.127053
 H         4.338639         0.773227         0.917909
 H         3.740640        -1.847917         1.029773
 H         4.210964        -0.977294        -1.536316
 H         2.604325        -1.745976        -1.865450
 H         1.810345         1.008137        -2.550496
