19
Iteration:  1032charge 0 multiplicity 1
 C        -0.154990         0.071976        -0.413825
 C         1.252958         0.060788         0.186520
 C         1.986580         0.897913         1.200290
 C         3.260848         0.431301         0.635512
 C         3.173508        -1.183775         0.408141
 C         3.277375        -1.060026        -1.116416
 C         2.525545         0.292898        -0.768735
 O         2.384287         1.191932        -1.911475
 O         1.719215        -1.327109         0.670734
 H        -0.864588        -0.037925         0.403328
 H        -0.657502         1.022551        -0.910905
 H        -0.226888        -0.689163        -1.209103
 H         2.044155         1.951514         0.969088
 H         1.677868         0.914423         2.195452
 H         4.287879         0.902658         0.817121
 H         3.730055        -1.875941         1.025988
 H         4.312798        -0.916464        -1.499032
 H         2.683798        -1.821709        -1.602355
 H         2.023827         2.105721        -1.722098
