19
Iteration:  3285
 C        -0.064951         0.128752        -0.317087
 C         1.330668        -0.070421         0.245483
 C         2.139558         0.994911         1.260872
 C         3.311793         0.481347         0.471829
 C         3.169901        -1.109424         0.449942
 C         3.079778        -1.075535        -1.143254
 C         2.458263         0.259521        -0.837117
 O         2.314833         1.128091        -1.895134
 O         1.703717        -1.330392         0.643442
 H        -0.804871        -0.207068         0.324113
 H        -0.192996         1.104282        -0.673419
 H        -0.152689        -0.468332        -1.333512
 H         1.884387         2.154835         1.178835
 H         2.090469         0.797338         2.412656
 H         4.278807         0.929986         0.683864
 H         3.808256        -1.886757         0.826387
 H         3.990851        -0.960977        -1.754743
 H         2.404840        -1.913763        -1.485096
 H         1.823248         1.902921        -1.528018
