19
Iteration:   487charge 0 multiplicity 1
 C        -0.167661         0.213512        -0.204107
 C         1.296562        -0.000877         0.208919
 C         1.967777         0.947703         1.192153
 C         3.278876         0.334367         0.538172
 C         3.178023        -1.147557         0.404458
 C         3.084538        -1.204825        -1.234469
 C         2.496928         0.247657        -0.864130
 O         2.506340         1.318186        -1.856607
 O         1.764029        -1.269665         0.744485
 H        -0.923000         0.101759         0.612228
 H        -0.341680         1.201666        -0.814231
 H        -0.568013        -0.657651        -0.919537
 H         1.895446         2.014087         0.892637
 H         1.523759         0.872492         2.193080
 H         4.422147         0.654454         0.513539
 H         3.567064        -1.928393         1.071952
 H         4.028611        -1.247483        -1.640618
 H         2.354995        -1.809401        -1.709806
 H         2.629022         0.881216        -2.695095
