19
Iteration:  1211charge 0 multiplicity 1
 C        -0.118395        -0.008886        -0.416686
 C         1.272516         0.057326         0.079911
 C         1.953194         0.860638         1.240921
 C         3.292118         0.421099         0.527354
 C         3.159993        -1.110288         0.455758
 C         3.243436        -1.142555        -1.013165
 C         2.540282         0.270166        -0.875705
 O         2.308002         1.251277        -1.802011
 O         1.722117        -1.171999         0.668749
 H        -0.808616        -0.439028         0.425022
 H        -0.521446         1.020297        -0.873974
 H        -0.217251        -0.773963        -1.285194
 H         1.847361         1.924712         1.160602
 H         1.731108         0.429347         2.227503
 H         4.238786         0.858014         0.732064
 H         3.638136        -1.838139         1.106748
 H         4.229956        -0.996352        -1.447659
 H         2.704109        -1.836573        -1.619358
 H         3.080032         1.752405        -2.078314
