19
Iteration:  4361charge 0 multiplicity 1
 C        -0.208385         0.028091        -0.020095
 C         1.262641        -0.053886         0.262633
 C         1.935350         0.966654         1.140369
 C         3.240013         0.516979         0.433190
 C         3.216151        -1.084651         0.391888
 C         3.134319        -1.123749        -1.131424
 C         2.497408         0.340045        -0.899631
 O         2.555122         1.234177        -1.892887
 O         1.735312        -1.337823         0.599163
 H        -0.811419         0.081842         0.991163
 H        -0.379374         0.997517        -0.440261
 H        -0.513264        -0.846608        -0.521862
 H         1.680875         2.041553         1.022262
 H         1.859553         0.720265         2.165928
 H         4.284307         0.881818         0.680916
 H         3.851024        -1.773785         1.056633
 H         4.088444        -0.933400        -1.654812
 H         2.678304        -1.865927        -1.831718
 H         2.217136         0.817566        -2.701281
