19
Iteration:  2206
 C        -0.112564        -0.072687        -0.186849
 C         1.297426         0.071846         0.150960
 C         1.939917         0.962059         1.215743
 C         3.278484         0.400221         0.599368
 C         3.008779        -1.150241         0.430570
 C         3.246633        -0.965433        -1.124058
 C         2.619938         0.318867        -0.878117
 O         2.424067         1.276709        -1.887104
 O         1.686038        -1.327997         0.612566
 H        -0.733544        -0.113412         0.667448
 H        -0.445551         0.729342        -0.762487
 H        -0.207168        -0.983636        -0.879023
 H         1.621187         1.990562         1.018483
 H         1.678600         0.826111         2.322454
 H         4.285701         0.749151         0.699503
 H         3.605148        -1.964918         0.992568
 H         4.257603        -0.838207        -1.437677
 H         2.686814        -1.536517        -1.846872
 H         2.672691         0.727424        -2.677623
