19
Iteration:  1618
 C        -0.134561         0.054818        -0.298741
 C         1.272520        -0.038835         0.116540
 C         1.849076         0.967484         1.140712
 C         3.207947         0.475615         0.573513
 C         3.152870        -1.134810         0.408798
 C         3.270365        -1.013677        -1.126445
 C         2.565550         0.206339        -0.861682
 O         2.407291         1.259728        -1.722940
 O         1.744940        -1.350500         0.638272
 H        -0.822651         0.164380         0.648838
 H        -0.305752         0.931157        -0.830157
 H        -0.638651        -0.735608        -0.989627
 H         1.625449         1.979271         0.840658
 H         1.761451         0.940055         2.249873
 H         4.251489         0.824397         0.746914
 H         3.819425        -1.777380         0.966455
 H         4.332506        -0.838731        -1.365464
 H         2.859308        -1.830001        -1.703624
 H         3.000419         1.123454        -2.443303
