19
Iteration:  3358
 C        -0.208879         0.019028        -0.074421
 C         1.301028        -0.004109         0.161679
 C         1.981692         0.963706         1.129686
 C         3.268654         0.475024         0.485138
 C         3.234202        -1.140500         0.417226
 C         3.157342        -1.124760        -1.102669
 C         2.494291         0.247432        -0.945370
 O         2.420740         1.340270        -1.826687
 O         1.709904        -1.351523         0.605884
 H        -0.821812         0.065858         0.982830
 H        -0.383464         0.931413        -0.748515
 H        -0.691446        -0.741622        -0.627876
 H         1.731867         1.919822         0.717228
 H         1.897891         0.938124         2.216059
 H         4.297096         0.943622         0.538476
 H         3.688031        -1.796350         1.129631
 H         4.112341        -0.973946        -1.582742
 H         2.600500        -2.002297        -1.497497
 H         3.263637         1.200680        -2.259057
