19
Iteration:  2835charge 0 multiplicity 1
 C        -0.035615         0.052430        -0.325457
 C         1.314700         0.042727         0.174220
 C         2.005155         0.899304         1.229178
 C         3.307860         0.464907         0.522135
 C         3.191834        -1.199093         0.376160
 C         3.080070        -1.067488        -1.150417
 C         2.474989         0.321870        -0.805767
 O         2.340222         1.173228        -1.876495
 O         1.746707        -1.269787         0.720384
 H        -0.649183        -0.127852         0.401468
 H        -0.396662         0.875824        -1.023789
 H        -0.117461        -0.778609        -1.016903
 H         1.965991         2.016375         1.277989
 H         1.737220         0.545038         2.222619
 H         4.272597         0.971370         0.780876
 H         3.867677        -1.889270         0.936666
 H         4.065194        -0.735682        -1.635473
 H         2.652445        -1.855046        -1.781644
 H         1.672042         1.877812        -1.709843
