19
Iteration:  2483
 C        -0.049154         0.022407        -0.382211
 C         1.387141        -0.029540         0.127812
 C         2.018319         1.005160         1.088672
 C         3.354011         0.385781         0.532367
 C         3.126606        -1.141313         0.441343
 C         3.226503        -1.093293        -1.019223
 C         2.524547         0.263948        -0.868253
 O         2.188243         1.319960        -1.664812
 O         1.704943        -1.288789         0.625656
 H        -0.731183        -0.324900         0.293166
 H        -0.558870         1.012593        -0.878768
 H        -0.035836        -0.777578        -1.147190
 H         1.955783         2.072080         0.765785
 H         1.866935         0.933283         2.205350
 H         4.327465         0.878426         0.798354
 H         3.585086        -2.031263         0.972598
 H         4.236978        -0.814431        -1.238357
 H         2.866415        -1.842116        -1.617185
 H         1.665576         0.975951        -2.372059
