19
Iteration:  2010charge 0 multiplicity 1
 C        -0.108659         0.070011        -0.359947
 C         1.314752        -0.083758         0.183466
 C         2.008254         0.966327         1.136866
 C         3.306070         0.405077         0.571214
 C         3.143148        -1.160581         0.466094
 C         3.290190        -1.054408        -1.109159
 C         2.563749         0.277015        -0.860510
 O         2.270911         1.270166        -1.850015
 O         1.662064        -1.306724         0.683060
 H        -0.898255        -0.203947         0.251172
 H        -0.377759         0.937805        -0.941997
 H        -0.240422        -0.982525        -1.030146
 H         1.656447         1.913593         0.850949
 H         1.818221         0.781077         2.193657
 H         4.263251         0.877652         0.685844
 H         3.752720        -1.729702         1.229750
 H         4.326452        -0.933392        -1.461468
 H         2.712119        -1.815398        -1.656839
 H         2.373714         2.234131        -1.591801
