19
Iteration:   271charge 0 multiplicity 1
 C        -0.186732         0.123845        -0.159068
 C         1.311250         0.058583         0.192416
 C         2.101848         0.996174         1.168965
 C         3.337171         0.325944         0.551763
 C         3.018293        -1.182409         0.409251
 C         3.217059        -1.164508        -1.089191
 C         2.555676         0.304236        -0.891368
 O         2.499267         1.290734        -1.921093
 O         1.577914        -1.305372         0.634166
 H        -0.782066        -0.165530         0.656832
 H        -0.509471         1.113289        -0.504717
 H        -0.466386        -0.611532        -0.870177
 H         1.972621         1.965763         0.615110
 H         1.941528         0.970497         2.273714
 H         4.467125         0.399135         0.833606
 H         3.603060        -1.766529         1.137017
 H         4.364785        -0.811036        -1.340858
 H         2.808748        -2.035960        -1.782810
 H         1.639076         1.170591        -2.428201
