19
Iteration:  3254charge 0 multiplicity 1
 C        -0.245190         0.072182        -0.076861
 C         1.286476        -0.002988         0.112641
 C         2.027023         0.936438         1.205747
 C         3.303456         0.371955         0.455030
 C         3.106224        -1.152808         0.414256
 C         3.227973        -1.114387        -1.148639
 C         2.493540         0.242345        -0.928732
 O         2.496050         1.282097        -1.968251
 O         1.731260        -1.223693         0.737035
 H        -0.670295        -0.314635         0.765803
 H        -0.715500         1.019474        -0.184067
 H        -0.578081        -0.615675        -1.020778
 H         1.942105         2.033959         1.081979
 H         1.858926         0.596591         2.210061
 H         4.238104         0.803637         0.733432
 H         3.670490        -1.983062         0.919070
 H         4.250711        -0.947110        -1.534502
 H         2.845420        -1.962295        -1.735676
 H         1.661851         1.738765        -1.750738
