19
Iteration:   982
 C        -0.301452         0.080641        -0.332961
 C         1.256016        -0.001586         0.145356
 C         1.964123         0.970497         1.269173
 C         3.246919         0.417838         0.527655
 C         3.175767        -1.106168         0.476110
 C         3.303357        -1.129435        -1.045531
 C         2.561961         0.254765        -0.910676
 O         2.489164         1.237496        -1.877586
 O         1.737936        -1.311031         0.591662
 H        -0.983198        -0.496828         0.317318
 H        -0.565127         1.142319        -0.389317
 H        -0.484670        -0.218723        -1.354100
 H         1.847479         2.077755         1.260903
 H         1.805329         0.742701         2.437297
 H         4.258840         0.770560         0.598046
 H         3.713274        -1.915451         1.059341
 H         4.366874        -0.982928        -1.312068
 H         2.787660        -1.977336        -1.671365
 H         1.674934         1.727343        -1.733237
