19
Iteration:   522
 C        -0.112387         0.176565        -0.205892
 C         1.311706        -0.017084         0.157191
 C         2.093828         1.025616         1.125958
 C         3.343421         0.415193         0.401104
 C         3.062990        -1.247561         0.498982
 C         3.223345        -1.205752        -1.134534
 C         2.529579         0.198251        -0.897567
 O         2.349600         1.344198        -1.705275
 O         1.606792        -1.274913         0.643197
 H        -0.710817         0.182859         0.734394
 H        -0.330241         1.216970        -0.699525
 H        -0.401685        -0.695775        -0.870915
 H         1.932256         2.039737         0.776217
 H         1.841921         0.911192         2.186491
 H         4.448446         0.647269         0.278922
 H         3.662340        -1.977466         1.132878
 H         4.219478        -1.126831        -1.323012
 H         2.871292        -1.963807        -1.755289
 H         2.256582         1.052264        -2.609346
