19
Iteration:  4277charge 0 multiplicity 1
 C        -0.086031         0.047976        -0.307429
 C         1.297257        -0.003591         0.247610
 C         2.058365         0.958941         1.149873
 C         3.335623         0.436859         0.520355
 C         3.177361        -1.080063         0.415055
 C         3.089733        -1.097411        -1.191578
 C         2.440872         0.238521        -0.867572
 O         2.324817         1.197983        -1.793512
 O         1.848099        -1.289770         0.746946
 H        -0.977771        -0.219950         0.350266
 H        -0.351345         1.090542        -0.797615
 H        -0.222034        -0.474379        -1.239748
 H         1.898907         1.969046         0.712610
 H         1.882969         0.953878         2.251936
 H         4.302253         0.970903         0.521118
 H         3.592993        -1.901458         0.930615
 H         4.074846        -0.948834        -1.722990
 H         2.426484        -1.807789        -1.635577
 H         1.385240         1.352266        -2.017147
