19
Iteration:  4731charge 0 multiplicity 1
 C        -0.180421        -0.028452        -0.023910
 C         1.298435        -0.053776         0.157033
 C         1.943323         0.928939         1.007954
 C         3.267440         0.489834         0.444639
 C         3.145386        -1.123241         0.338131
 C         3.138566        -1.095948        -1.107275
 C         2.517127         0.291758        -0.899642
 O         2.506744         1.306618        -1.817965
 O         1.743972        -1.301485         0.741539
 H        -0.688264        -0.065147         0.920470
 H        -0.318516         1.014749        -0.318516
 H        -0.651227        -0.704886        -0.784113
 H         1.981622         1.963845         0.529194
 H         1.708057         1.051313         2.114850
 H         4.274555         0.983557         0.491034
 H         3.830739        -1.630441         0.963543
 H         4.190765        -1.119825        -1.393362
 H         2.503991        -1.901730        -1.450237
 H         2.130387         0.952018        -2.656954
