19
Iteration:  1819charge 0 multiplicity 1
 C        -0.077081         0.080741        -0.412098
 C         1.284375        -0.042849         0.092454
 C         1.939343         1.045715         1.097937
 C         3.272616         0.410698         0.524220
 C         3.198647        -1.210371         0.536045
 C         3.358653        -1.181746        -1.111706
 C         2.641800         0.207379        -0.838042
 O         2.140226         1.331230        -1.639017
 O         1.668951        -1.311168         0.628056
 H        -0.953369         0.035993         0.405923
 H        -0.164593         1.182957        -0.898622
 H        -0.439227        -0.638602        -1.108129
 H         1.783624         2.092956         0.705742
 H         1.744930         0.936625         2.147849
 H         4.184036         1.038997         0.651641
 H         3.820478        -1.915108         1.119386
 H         4.356978        -1.020745        -1.403819
 H         2.899185        -1.864662        -1.790135
 H         2.917804         1.644283        -2.117983
