19
Iteration:   338charge 0 multiplicity 1
 C        -0.089201         0.111975        -0.253964
 C         1.306345         0.080457         0.210162
 C         2.040076         1.002523         1.230192
 C         3.346769         0.367361         0.485488
 C         2.995707        -1.249777         0.384843
 C         3.117067        -1.100149        -1.108189
 C         2.580864         0.277275        -0.847527
 O         2.472150         1.272193        -1.853908
 O         1.648022        -1.276533         0.679743
 H        -0.796165         0.082046         0.534279
 H        -0.349171         0.951327        -0.896983
 H        -0.236305        -0.764009        -0.796686
 H         1.990294         2.000905         0.865264
 H         1.829601         0.694735         2.270220
 H         4.399853         0.588837         0.636864
 H         3.630958        -1.962539         0.973778
 H         4.215923        -0.957860        -1.543845
 H         2.563484        -1.834024        -1.822639
 H         1.786645         0.934544        -2.446313
