19
Iteration:  4303
 C        -0.031053         0.025774        -0.308541
 C         1.322061         0.007752         0.187230
 C         2.101481         1.022065         1.161930
 C         3.336144         0.440143         0.379986
 C         3.194046        -1.126717         0.436444
 C         3.217299        -1.212374        -1.085954
 C         2.485916         0.263448        -0.922251
 O         2.206665         1.349109        -1.714315
 O         1.682529        -1.290977         0.715502
 H        -0.665087        -0.240499         0.479246
 H        -0.501727         0.866519        -0.675042
 H        -0.330820        -0.729714        -1.093789
 H         2.005322         2.101311         0.964132
 H         2.094885         0.694178         2.252072
 H         4.324546         0.898384         0.300418
 H         3.537452        -1.998162         1.096392
 H         4.277606        -1.175433        -1.378577
 H         2.452935        -1.914626        -1.536991
 H         1.594763         1.069411        -2.412614
