19
Iteration:  3062charge 0 multiplicity 1
 C        -0.209947        -0.053068         0.005163
 C         1.305446         0.034466         0.107795
 C         2.000901         0.937769         1.151403
 C         3.309147         0.444912         0.565709
 C         3.069461        -1.131943         0.413816
 C         3.185626        -1.063590        -1.137487
 C         2.532846         0.281869        -0.920936
 O         2.488437         1.298909        -1.933107
 O         1.693361        -1.281634         0.620504
 H        -0.768827        -0.109373         1.086319
 H        -0.560440         0.980993        -0.360163
 H        -0.539190        -0.846889        -0.572237
 H         1.674729         1.987343         0.832868
 H         1.643267         0.602624         2.256863
 H         4.200462         1.065253         0.689177
 H         3.604708        -1.977828         0.937928
 H         4.282005        -0.998022        -1.523250
 H         2.650465        -1.815451        -1.740331
 H         3.110743         0.969929        -2.642208
