19
Iteration:    86charge 0 multiplicity 1
 C        -0.180119         0.075572        -0.170242
 C         1.340598        -0.009728         0.124825
 C         2.044766         1.005041         1.074920
 C         3.360256         0.385255         0.551451
 C         3.053977        -1.154795         0.495345
 C         3.246920        -1.204765        -1.118729
 C         2.623700         0.274023        -0.956946
 O         2.440521         1.262031        -1.854023
 O         1.551727        -1.245340         0.638100
 H        -0.771222        -0.136962         0.761350
 H        -0.370556         1.163464        -0.507325
 H        -0.528410        -0.623821        -1.022735
 H         1.856790         2.113055         0.820858
 H         1.705751         0.818161         2.099041
 H         4.469234         0.572249         0.766749
 H         3.549149        -1.781024         1.178840
 H         4.300700        -1.192089        -1.340672
 H         2.764855        -1.999999        -1.655799
 H         1.795889         1.885844        -1.467400
