19
Iteration:  1785
 C        -0.131687         0.039595        -0.345534
 C         1.288282        -0.085880         0.150590
 C         1.860032         0.930212         1.177306
 C         3.226745         0.456054         0.533237
 C         3.189426        -1.167354         0.501494
 C         3.234522        -1.047767        -1.141494
 C         2.535234         0.284655        -0.867406
 O         2.398575         1.325501        -1.822756
 O         1.712500        -1.342560         0.681340
 H        -0.774984         0.105201         0.668276
 H        -0.206595         1.040078        -1.015879
 H        -0.319828        -0.731779        -1.045454
 H         1.816113         2.032194         1.049549
 H         1.764813         0.669285         2.237456
 H         4.147642         1.005866         0.660361
 H         3.687781        -1.860587         1.248623
 H         4.237789        -0.905605        -1.434458
 H         2.753890        -1.822053        -1.686421
 H         3.205790         1.358336        -2.322009
