19
Iteration:  2552
 C        -0.277222        -0.048535        -0.085053
 C         1.228479        -0.031947         0.169167
 C         1.881634         0.961140         1.121913
 C         3.183368         0.520887         0.454631
 C         3.117053        -1.089004         0.428067
 C         3.284235        -1.100881        -1.127864
 C         2.611842         0.252689        -0.869875
 O         2.578019         1.349571        -1.811665
 O         1.758216        -1.347574         0.572972
 H        -0.731303        -0.119789         0.897471
 H        -0.400490         1.017009        -0.615082
 H        -0.464684        -0.829266        -0.774871
 H         1.694602         2.022182         1.015455
 H         1.893015         0.675846         2.194463
 H         4.213200         0.738374         0.546434
 H         3.758054        -1.662224         1.096641
 H         4.383462        -1.181961        -1.385454
 H         2.658904        -1.861931        -1.689807
 H         1.797062         1.136797        -2.367693
