19
Iteration:  3979charge 0 multiplicity 1
 C        -0.055324         0.112274        -0.282736
 C         1.345836         0.031506         0.121650
 C         2.059285         0.969601         1.140301
 C         3.287651         0.414385         0.475382
 C         3.125348        -1.171561         0.419498
 C         3.158992        -1.074242        -1.177290
 C         2.508503         0.214170        -0.876078
 O         2.125318         1.206336        -1.778985
 O         1.799298        -1.272026         0.800536
 H        -0.877477        -0.152533         0.427588
 H        -0.270052         1.064345        -0.651087
 H         0.014309        -0.655056        -0.999258
 H         2.051893         2.018503         0.795868
 H         1.866412         0.719809         2.219207
 H         4.259475         0.885569         0.486922
 H         3.712369        -1.841944         1.087241
 H         4.271794        -1.018910        -1.246359
 H         2.617272        -1.886360        -1.804486
 H         2.912435         1.497294        -2.308576
