19
Iteration:  4223
 C        -0.300591        -0.036565         0.015638
 C         1.293244         0.095046         0.119513
 C         2.030889         0.951419         1.190134
 C         3.239535         0.435862         0.454121
 C         3.290527        -1.076236         0.400679
 C         3.283821        -1.092675        -1.050079
 C         2.529284         0.278737        -0.887298
 O         2.389706         1.142729        -1.933053
 O         1.646899        -1.298021         0.534964
 H        -0.764719        -0.115821         0.997787
 H        -0.604797         0.991012        -0.437507
 H        -0.616516        -0.763336        -0.703838
 H         1.845678         2.044752         1.007129
 H         1.839287         0.801693         2.291195
 H         4.269907         0.849070         0.364638
 H         3.725037        -1.784803         1.035867
 H         4.200489        -0.749688        -1.639524
 H         3.002572        -1.974892        -1.568006
 H         2.641457         2.046531        -1.707920
