19
Iteration:  4093charge 0 multiplicity 1
 C        -0.113672         0.154317        -0.228821
 C         1.363834         0.000153         0.173343
 C         1.972248         0.936322         1.160013
 C         3.234414         0.510711         0.431221
 C         3.199230        -1.157685         0.466813
 C         3.153930        -1.141101        -1.121430
 C         2.483310         0.229331        -0.908643
 O         2.210704         1.160593        -1.818403
 O         1.828804        -1.309958         0.659951
 H        -0.619251        -0.170278         0.636805
 H        -0.376532         1.239270        -0.426013
 H        -0.304607        -0.572477        -1.049527
 H         1.991871         2.021305         0.875764
 H         1.997932         0.668327         2.255167
 H         4.227364         1.025851         0.583273
 H         3.724803        -1.725928         1.217265
 H         4.081429        -0.676903        -1.663269
 H         2.641696        -2.023251        -1.480854
 H         3.002450         1.745039        -1.892794
