19
Iteration:  2442
 C        -0.230455         0.015407        -0.255176
 C         1.219604        -0.070499         0.198095
 C         1.963372         0.888246         1.122862
 C         3.226874         0.560894         0.459067
 C         3.154917        -1.121137         0.420027
 C         3.188340        -1.017015        -1.066233
 C         2.561316         0.271640        -0.897017
 O         2.535403         1.297457        -1.803304
 O         1.772752        -1.373805         0.685236
 H        -0.933269        -0.250264         0.475824
 H        -0.444313         1.113641        -0.395604
 H        -0.361366        -0.517827        -1.140414
 H         1.528548         1.849021         0.912086
 H         1.818626         0.697066         2.211531
 H         4.215801         0.951503         0.611554
 H         3.942339        -1.765458         0.929233
 H         4.315130        -0.948652        -1.308935
 H         2.702435        -1.915667        -1.513680
 H         1.813246         1.212353        -2.475605
