19
Iteration:  2011charge 0 multiplicity 1
 C        -0.113641         0.064666        -0.348978
 C         1.318947        -0.089459         0.179875
 C         2.007480         0.972023         1.133172
 C         3.306937         0.399881         0.567610
 C         3.140272        -1.162177         0.465140
 C         3.289113        -1.059463        -1.102839
 C         2.572911         0.279104        -0.860091
 O         2.268612         1.273582        -1.850309
 O         1.663484        -1.298687         0.675894
 H        -0.904549        -0.194215         0.236521
 H        -0.419988         0.946916        -0.954174
 H        -0.238368        -0.964915        -1.022246
 H         1.634232         1.934780         0.863484
 H         1.820367         0.797054         2.189607
 H         4.259083         0.868618         0.707107
 H         3.745614        -1.755519         1.239648
 H         4.367517        -0.921231        -1.447782
 H         2.726697        -1.851934        -1.676434
 H         2.356006         2.217966        -1.558098
