19
Iteration:  1318charge 0 multiplicity 1
 C        -0.170911         0.106460        -0.389798
 C         1.286808        -0.016219         0.200694
 C         1.894428         0.942354         1.199906
 C         3.184278         0.399298         0.631478
 C         3.148061        -1.125318         0.438400
 C         3.210131        -1.021563        -1.167925
 C         2.568619         0.272114        -0.832092
 O         2.365350         1.206357        -1.888977
 O         1.811520        -1.353517         0.731195
 H        -0.818683        -0.073987         0.345765
 H        -0.251112         1.195843        -0.738142
 H        -0.203052        -0.647665        -1.125270
 H         1.733369         1.941584         0.888088
 H         1.562229         0.806977         2.254559
 H         4.156812         0.779707         0.765928
 H         3.876623        -1.835068         0.826494
 H         4.376110        -0.810331        -1.401460
 H         2.689405        -1.791257        -1.781439
 H         3.113174         1.631339        -2.278247
