19
Iteration:  4801
 C        -0.028488         0.077629        -0.282742
 C         1.319688         0.000009         0.255349
 C         2.018100         0.959032         1.209092
 C         3.314874         0.435940         0.425550
 C         3.144114        -1.076567         0.370121
 C         3.158126        -1.154634        -1.085956
 C         2.501644         0.356077        -0.851810
 O         2.276186         1.177069        -1.916085
 O         1.784885        -1.314326         0.751292
 H        -0.908610        -0.029813         0.468528
 H        -0.203903         1.126962        -0.737679
 H        -0.141262        -0.664985        -1.080146
 H         1.966825         2.017285         0.958834
 H         1.744166         0.729230         2.246305
 H         4.254263         0.895121         0.594196
 H         3.853140        -1.769350         0.923151
 H         4.166749        -1.088085        -1.501477
 H         2.397231        -1.826835        -1.493698
 H         1.290424         1.169458        -2.021206
