19
Iteration:  2894
 C        -0.245866         0.078947         0.035380
 C         1.196035        -0.088866         0.141555
 C         1.916796         0.971625         1.098068
 C         3.175232         0.456685         0.451737
 C         3.189466        -1.122557         0.340015
 C         3.337186        -1.074871        -1.148208
 C         2.483769         0.236047        -0.932339
 O         2.573457         1.217402        -1.822423
 O         1.749846        -1.313567         0.611814
 H        -0.784222        -0.125732         0.939034
 H        -0.331315         1.071638        -0.164757
 H        -0.605842        -0.664412        -0.729358
 H         1.811458         2.080453         0.863503
 H         1.465098         0.681213         2.073045
 H         4.167099         0.971252         0.371105
 H         3.661751        -1.841077         1.030299
 H         4.261472        -0.759296        -1.467145
 H         2.925709        -1.875872        -1.739136
 H         2.159073         2.042501        -1.456245
