19
Iteration:  1271charge 0 multiplicity 1
 C        -0.235523         0.001992        -0.248424
 C         1.286250         0.046989         0.033324
 C         1.892727         1.017438         1.131588
 C         3.241644         0.411654         0.553803
 C         3.095882        -1.177283         0.441848
 C         3.430061        -1.129267        -1.113395
 C         2.581609         0.204397        -0.896192
 O         2.349518         1.325438        -1.763334
 O         1.703841        -1.310006         0.648507
 H        -0.729947         0.176456         0.779843
 H        -0.509084         0.864281        -0.822765
 H        -0.404402        -0.960184        -0.661561
 H         1.700018         2.149600         1.028494
 H         1.637734         0.722291         2.180973
 H         4.326848         0.701772         0.890464
 H         3.561839        -1.781008         1.263827
 H         4.466127        -0.758126        -1.318196
 H         2.960789        -1.854435        -1.811193
 H         3.145046         1.514860        -2.333097
