19
Iteration:  4324
 C        -0.132170         0.014200        -0.152500
 C         1.338468        -0.001519         0.144130
 C         2.024604         1.018130         1.086188
 C         3.340962         0.395967         0.398902
 C         3.161921        -1.193950         0.387112
 C         3.187872        -1.122276        -1.144933
 C         2.541145         0.221774        -0.876557
 O         2.273164         1.349662        -1.764137
 O         1.700537        -1.260870         0.759404
 H        -0.673707        -0.186214         0.707451
 H        -0.388048         0.911765        -0.717807
 H        -0.392845        -0.714187        -1.005756
 H         1.884007         2.090948         0.864323
 H         1.904572         0.739418         2.199028
 H         4.303361         0.742384         0.715314
 H         3.738943        -1.687909         1.199988
 H         4.240600        -0.810520        -1.343883
 H         2.767365        -1.925580        -1.811987
 H         2.007612         0.970408        -2.639965
