19
Iteration:  3714charge 0 multiplicity 1
 C        -0.187533        -0.061721         0.038837
 C         1.258714        -0.036783         0.148426
 C         1.957420         0.932449         1.110449
 C         3.237832         0.518473         0.361600
 C         3.104339        -1.156201         0.421865
 C         3.157960        -1.110701        -1.148928
 C         2.511454         0.281096        -0.994901
 O         2.586211         1.364925        -1.873587
 O         1.770952        -1.258697         0.740711
 H        -0.616477        -0.092887         1.000049
 H        -0.616089         0.928490        -0.314907
 H        -0.760801        -0.757028        -0.667942
 H         1.673527         1.992056         0.800747
 H         1.745033         0.647585         2.244705
 H         4.274358         0.888168         0.479521
 H         3.614027        -1.927394         0.996129
 H         4.265377        -1.214709        -1.214317
 H         2.580143        -1.972130        -1.594511
 H         2.181856         0.953069        -2.660802
