19
Iteration:   345charge 0 multiplicity 1
 C        -0.098291         0.076650        -0.274954
 C         1.362206         0.095509         0.174465
 C         2.102260         0.960061         1.247618
 C         3.369642         0.368305         0.507526
 C         2.972354        -1.182699         0.400251
 C         3.152083        -1.070006        -1.213181
 C         2.533336         0.264290        -0.830170
 O         2.476911         1.217352        -1.834843
 O         1.584400        -1.248390         0.701259
 H        -0.759979         0.021868         0.609848
 H        -0.398099         0.929795        -0.923964
 H        -0.323745        -0.919152        -0.806363
 H         1.990415         2.086670         1.050741
 H         1.772878         0.821499         2.277106
 H         4.505578         0.722200         0.703163
 H         3.472324        -1.994384         0.882864
 H         4.172410        -0.899211        -1.420954
 H         2.646032        -1.800442        -1.803025
 H         1.748107         0.921450        -2.373759
