19
Iteration:   951
 C        -0.126267         0.069635        -0.216904
 C         1.332108        -0.037615         0.068967
 C         1.859544         0.943712         1.077929
 C         3.215202         0.412587         0.498756
 C         3.096112        -1.124286         0.474535
 C         3.203516        -1.030884        -1.036708
 C         2.532069         0.277229        -0.870178
 O         2.577901         1.284899        -1.811785
 O         1.694960        -1.368559         0.669897
 H        -0.608100        -0.532385         0.607279
 H        -0.378077         1.052848        -0.259629
 H        -0.497468        -0.458243        -1.101771
 H         1.887706         1.941502         0.618457
 H         1.547239         0.953967         2.115006
 H         4.317535         0.784958         0.458830
 H         3.722152        -1.946229         0.875261
 H         4.344586        -0.953992        -1.121052
 H         2.810273        -1.776461        -1.892262
 H         1.674136         1.680233        -1.792030
