19
Iteration:   983charge 0 multiplicity 1
 C        -0.289256         0.083576        -0.333238
 C         1.250709         0.002633         0.133729
 C         1.969277         0.962754         1.278657
 C         3.250709         0.411739         0.532581
 C         3.165874        -1.105580         0.470854
 C         3.294780        -1.125331        -1.035357
 C         2.572585         0.264251        -0.908992
 O         2.481184         1.234679        -1.882729
 O         1.736140        -1.316794         0.592182
 H        -0.978486        -0.484106         0.339478
 H        -0.585149         1.086376        -0.377414
 H        -0.446847        -0.228487        -1.362353
 H         1.842399         2.072390         1.253428
 H         1.800866         0.753196         2.415834
 H         4.297995         0.835983         0.573244
 H         3.712050        -1.888236         1.067265
 H         4.384456        -0.969443        -1.300848
 H         2.769768        -1.997501        -1.672426
 H         1.684357         1.736193        -1.758542
