19
Iteration:  1940charge 0 multiplicity 1
 C        -0.103506        -0.021304        -0.260586
 C         1.307722         0.044351         0.098289
 C         1.956472         0.980170         1.082489
 C         3.303210         0.448566         0.551070
 C         3.084245        -1.223820         0.491917
 C         3.356785        -1.067656        -1.064367
 C         2.548991         0.247737        -0.830412
 O         2.293175         1.349999        -1.753745
 O         1.663930        -1.289706         0.577908
 H        -0.714968        -0.312452         0.719378
 H        -0.599262         0.937632        -0.587865
 H        -0.422568        -0.856640        -0.897199
 H         1.631129         2.006095         0.708995
 H         1.748321         0.876345         2.152095
 H         4.400415         0.724873         0.539001
 H         3.453013        -2.077029         1.010165
 H         4.364364        -0.865597        -1.192862
 H         3.033216        -1.803241        -1.751102
 H         2.867476         1.050636        -2.511625
