19
Iteration:  2116
 C        -0.179300        -0.001257        -0.266204
 C         1.311556         0.063962         0.125294
 C         1.950369         1.006802         1.204698
 C         3.282545         0.421718         0.569476
 C         3.165910        -1.206574         0.434599
 C         3.298241        -1.099188        -1.098639
 C         2.572920         0.244882        -0.863576
 O         2.320989         1.245801        -1.852787
 O         1.646601        -1.287164         0.607036
 H        -0.716353        -0.230867         0.757943
 H        -0.660587         0.860063        -0.576238
 H        -0.361423        -0.724523        -0.997144
 H         1.935622         2.090085         0.905675
 H         1.832908         0.914210         2.337012
 H         4.297611         0.813752         0.757648
 H         3.815506        -1.916241         0.975020
 H         4.251136        -0.835795        -1.609381
 H         2.786953        -1.888981        -1.683105
 H         3.029121         1.946799        -2.012537
