19
Iteration:  1918
 C        -0.211290        -0.013302        -0.160670
 C         1.232744        -0.008340         0.095173
 C         1.957399         1.052425         1.034627
 C         3.166719         0.369693         0.621092
 C         3.119092        -1.144330         0.398984
 C         3.387538        -1.030062        -1.121595
 C         2.641518         0.223222        -0.922204
 O         2.396653         1.296488        -1.722121
 O         1.674393        -1.331828         0.616049
 H        -0.821249        -0.372430         0.820998
 H        -0.599588         1.067457        -0.346835
 H        -0.543703        -0.754420        -0.976798
 H         1.960776         2.120351         0.652015
 H         1.633703         1.121249         2.080239
 H         4.249271         0.636292         0.848055
 H         3.728488        -1.729411         1.062506
 H         4.404709        -0.874009        -1.144707
 H         3.115425        -1.736674        -1.845915
 H         2.733635         1.228542        -2.602385
