19
Iteration:  2261
 C        -0.129205         0.023855        -0.126681
 C         1.256550        -0.121083         0.099885
 C         1.852286         0.962379         1.055411
 C         3.175408         0.489021         0.509603
 C         3.189334        -1.022141         0.394974
 C         3.264726        -1.179124        -1.099870
 C         2.540092         0.221628        -0.900942
 O         2.593394         1.389211        -1.751363
 O         1.680073        -1.374191         0.647573
 H        -0.711723        -0.347283         0.683558
 H        -0.293364         1.070326        -0.167163
 H        -0.575459        -0.404635        -1.125805
 H         1.549558         1.957980         0.661251
 H         1.805223         0.761999         2.177798
 H         4.040483         1.102305         0.674225
 H         3.806310        -1.714970         1.056328
 H         4.224221        -0.995814        -1.526757
 H         2.777722        -2.012240        -1.573670
 H         1.747608         1.380911        -2.193577
