19
Iteration:  3144charge 0 multiplicity 1
 C        -0.085884         0.098298        -0.331473
 C         1.351936         0.092043         0.189732
 C         2.107079         1.028143         1.201914
 C         3.364332         0.336195         0.547525
 C         3.223045        -1.186768         0.431320
 C         3.088058        -1.078164        -1.156636
 C         2.469385         0.239557        -0.789310
 O         2.180296         1.121629        -1.834653
 O         1.750336        -1.253474         0.633130
 H        -0.851490        -0.079740         0.333168
 H        -0.207743         0.992863        -0.906679
 H        -0.086662        -0.632339        -1.358409
 H         1.906034         2.042812         0.967245
 H         2.004594         0.862624         2.182714
 H         4.295402         0.828648         0.937301
 H         3.697138        -2.010268         0.923339
 H         4.020597        -0.828944        -1.662113
 H         2.526808        -1.936863        -1.613794
 H         2.113676         2.046793        -1.500089
