19
Iteration:  3857
 C        -0.219876        -0.024373        -0.023381
 C         1.323660         0.020151         0.058704
 C         2.055698         0.981979         1.104176
 C         3.309672         0.386420         0.434565
 C         3.101849        -1.123734         0.435881
 C         3.220513        -1.087671        -1.201234
 C         2.573321         0.286169        -0.914118
 O         2.345360         1.263267        -1.826021
 O         1.666625        -1.215369         0.747556
 H        -0.653206        -0.263067         0.936014
 H        -0.832077         0.780969        -0.460884
 H        -0.417560        -0.880463        -0.689052
 H         1.959372         2.036102         0.820618
 H         1.775324         0.692757         2.207158
 H         4.340412         0.809344         0.462276
 H         3.701391        -1.899208         0.891440
 H         4.332872        -0.938478        -1.371663
 H         2.698707        -2.044877        -1.555904
 H         3.046281         1.216121        -2.525538
