19
Iteration:  2853charge 0 multiplicity 1
 C        -0.149048        -0.066132        -0.195068
 C         1.348360         0.053252         0.142732
 C         1.996594         0.919247         1.262737
 C         3.339012         0.379911         0.631033
 C         3.062969        -1.160460         0.402646
 C         3.217561        -1.000266        -1.160945
 C         2.603188         0.317851        -0.914896
 O         2.362702         1.241598        -1.997618
 O         1.715290        -1.243518         0.668623
 H        -0.860693        -0.090914         0.824081
 H        -0.526690         0.860269        -0.756350
 H        -0.379909        -0.915350        -0.835497
 H         1.871741         1.949585         1.049049
 H         1.735483         0.624390         2.309880
 H         4.320312         0.717179         0.735306
 H         3.705650        -1.842897         0.933594
 H         4.258612        -1.155185        -1.558946
 H         2.482225        -1.730058        -1.609429
 H         1.655972         1.829812        -1.661269
