19
Iteration:  4589charge 0 multiplicity 1
 C        -0.092486        -0.017049        -0.208660
 C         1.349596         0.036014         0.108486
 C         1.992786         0.938011         1.158941
 C         3.264379         0.388207         0.520099
 C         3.167277        -1.177506         0.402050
 C         3.123353        -1.031985        -1.147394
 C         2.535889         0.323814        -0.855601
 O         2.376574         1.264672        -1.874111
 O         1.712235        -1.246446         0.754412
 H        -0.362191        -0.345357         0.791204
 H        -0.589250         0.879631        -0.468872
 H        -0.195110        -0.891597        -0.944841
 H         2.042123         2.054294         0.950970
 H         1.878688         0.895850         2.251880
 H         4.252876         0.830328         0.553727
 H         3.800618        -1.901934         0.827304
 H         4.070111        -0.949470        -1.575981
 H         2.416348        -1.780151        -1.476619
 H         1.704336         0.943555        -2.532743
