19
Iteration:  4039charge 0 multiplicity 1
 C        -0.191555        -0.059809         0.066956
 C         1.346694        -0.008214         0.067804
 C         1.925745         1.016932         1.089615
 C         3.309314         0.407238         0.544295
 C         3.123441        -1.172847         0.352798
 C         3.202087        -1.032758        -1.152140
 C         2.511985         0.325122        -0.909592
 O         2.419065         1.241898        -1.892173
 O         1.675801        -1.240533         0.680763
 H        -0.479486        -0.120309         1.093153
 H        -0.683789         0.730042        -0.611591
 H        -0.526278        -0.970152        -0.623268
 H         1.899310         2.120957         0.889605
 H         1.758684         0.908285         2.192958
 H         4.402466         0.698001         0.532127
 H         3.663775        -1.812821         1.040040
 H         4.341958        -0.884881        -1.402638
 H         2.767442        -1.830603        -1.747645
 H         3.125865         0.971724        -2.505879
