19
Iteration:  4206
 C        -0.214510         0.067439         0.025878
 C         1.237571        -0.043093         0.204816
 C         1.945214         0.993391         1.132875
 C         3.276659         0.512969         0.493203
 C         3.116696        -1.143735         0.422337
 C         3.287240        -1.054533        -1.184747
 C         2.451916         0.223324        -0.918441
 O         2.437553         1.181869        -1.954853
 O         1.781030        -1.321020         0.587295
 H        -0.607528        -0.105607         1.047583
 H        -0.694013         0.858513        -0.431773
 H        -0.645705        -0.812387        -0.594539
 H         1.727754         2.027122         0.958499
 H         1.764443         0.766236         2.197204
 H         4.218720         1.035213         0.576611
 H         3.796804        -1.760043         1.102124
 H         4.304984        -0.819990        -1.465812
 H         2.817106        -1.884355        -1.789678
 H         3.135996         1.781547        -1.649202
