19
Iteration:  2132charge 0 multiplicity 1
 C        -0.076542         0.062826        -0.278501
 C         1.323440        -0.044611         0.146523
 C         2.038172         1.014930         1.066376
 C         3.303960         0.369587         0.550181
 C         3.069607        -1.156638         0.480333
 C         3.288331        -1.065224        -1.113801
 C         2.591673         0.295906        -0.836622
 O         2.183235         1.254136        -1.796772
 O         1.694214        -1.347569         0.629575
 H        -0.836373        -0.107426         0.405432
 H        -0.248265         1.120884        -0.773772
 H        -0.262328        -0.766358        -1.154914
 H         1.864113         2.026937         0.721420
 H         1.656671         1.036654         2.072605
 H         4.344764         0.681939         0.684778
 H         3.553159        -1.841046         1.226859
 H         4.361402        -1.027998        -1.204051
 H         2.841605        -1.848304        -1.720305
 H         2.741254         2.026493        -1.563784
