19
Iteration:  2046
 C        -0.184488        -0.004629        -0.150376
 C         1.297086        -0.049522         0.065719
 C         1.929389         0.979087         1.083209
 C         3.226431         0.390056         0.521246
 C         3.173181        -1.111703         0.480888
 C         3.277645        -1.032693        -1.115714
 C         2.547092         0.260084        -0.853042
 O         2.536864         1.268900        -1.815292
 O         1.646308        -1.295052         0.616389
 H        -0.620458        -0.299909         0.775835
 H        -0.738277         0.975813        -0.511621
 H        -0.350048        -0.756357        -0.960838
 H         1.716166         2.031024         0.769002
 H         1.702956         0.812262         2.135545
 H         4.220741         0.869202         0.578118
 H         3.584414        -1.869168         1.171155
 H         4.347938        -0.714556        -1.479525
 H         2.933597        -1.916477        -1.755307
 H         1.610906         1.651248        -1.732693
