19
Iteration:  3418charge 0 multiplicity 1
 C        -0.186270        -0.044587        -0.080302
 C         1.266337         0.067444         0.216735
 C         2.070756         0.992880         1.195709
 C         3.232956         0.403651         0.392626
 C         3.129038        -1.083745         0.448365
 C         3.215447        -1.080470        -1.038455
 C         2.480958         0.221894        -0.925537
 O         2.489045         1.276809        -1.835308
 O         1.684328        -1.320622         0.528781
 H        -0.888500        -0.333378         0.589659
 H        -0.419746         0.991006        -0.341186
 H        -0.191476        -0.684646        -1.053291
 H         1.779139         2.109200         0.962864
 H         2.144411         0.778490         2.308104
 H         4.202577         0.846428         0.446152
 H         3.863901        -1.606311         1.141573
 H         4.238450        -0.892243        -1.482668
 H         2.723147        -1.948547        -1.467484
 H         1.792174         1.250661        -2.517350
