19
Iteration:  3743
 C        -0.215720        -0.019454        -0.093633
 C         1.303796         0.042127         0.150927
 C         2.008785         1.026695         1.117280
 C         3.299962         0.437335         0.440161
 C         3.201189        -1.140265         0.389728
 C         3.140034        -1.105228        -1.138875
 C         2.518006         0.288400        -0.856397
 O         2.391874         1.281742        -1.810244
 O         1.733239        -1.299877         0.661861
 H        -0.685439        -0.144086         0.929465
 H        -0.661702         0.885106        -0.430303
 H        -0.523752        -0.943030        -0.653064
 H         1.969102         2.009070         0.607738
 H         1.824405         1.046451         2.147912
 H         4.258108         0.883444         0.599736
 H         3.786934        -1.863573         0.996678
 H         4.213384        -1.223702        -1.557657
 H         2.581468        -1.946135        -1.575282
 H         2.689579         0.773413        -2.606496
