19
Iteration:  2463
 C        -0.098370         0.031981        -0.351825
 C         1.291078        -0.036955         0.090565
 C         1.952241         0.969407         1.147534
 C         3.247471         0.429509         0.486506
 C         3.175206        -1.137886         0.482188
 C         3.338200        -1.183611        -1.153144
 C         2.511109         0.238959        -0.858667
 O         2.302172         1.372649        -1.707652
 O         1.726714        -1.304550         0.725291
 H        -0.733344        -0.200933         0.381313
 H        -0.375492         1.154384        -0.431160
 H        -0.291277        -0.493485        -1.230906
 H         1.861152         2.042509         0.959927
 H         1.698324         0.792089         2.239750
 H         4.238551         0.890665         0.411096
 H         3.792662        -1.731765         1.254210
 H         4.352675        -0.935497        -1.596382
 H         2.789518        -1.953265        -1.711880
 H         1.729675         1.143568        -2.474093
