19
Iteration:  3804
 C        -0.068542         0.172200        -0.308450
 C         1.393977        -0.034821         0.174879
 C         2.021323         0.963582         1.163046
 C         3.387439         0.515433         0.448686
 C         3.286700        -1.166197         0.505761
 C         3.108109        -1.162008        -1.163464
 C         2.511172         0.256662        -0.828031
 O         2.069512         1.114802        -1.832229
 O         1.733240        -1.283387         0.672361
 H        -0.795640         0.097315         0.593153
 H        -0.057072         1.188956        -0.754092
 H        -0.344660        -0.340477        -1.153220
 H         1.781079         2.029260         1.133218
 H         1.961320         0.605576         2.281839
 H         4.220647         1.135592         0.823279
 H         3.903714        -1.866210         1.098747
 H         4.053411        -0.946239        -1.641354
 H         2.478470        -2.004456        -1.569165
 H         2.790493         1.784162        -1.971594
