19
Iteration:  4894charge 0 multiplicity 1
 C        -0.174363        -0.045734        -0.048844
 C         1.262952        -0.019406         0.241303
 C         1.952985         0.964006         1.118883
 C         3.284240         0.559265         0.544300
 C         3.198052        -1.101471         0.429615
 C         3.095678        -1.109432        -1.213932
 C         2.421400         0.234408        -0.877992
 O         2.510375         1.168621        -2.016020
 O         1.793397        -1.260409         0.674501
 H        -0.696827        -0.190035         0.876093
 H        -0.416019         0.971701        -0.416476
 H        -0.411196        -0.820159        -0.842776
 H         1.799135         2.007541         0.831631
 H         1.660567         0.835329         2.164149
 H         4.307848         1.068065         0.729114
 H         3.655041        -1.902711         0.999718
 H         3.993193        -0.815679        -1.801150
 H         2.505141        -1.979431        -1.477470
 H         2.782532         2.043097        -1.732641
