19
Iteration:  2215charge 0 multiplicity 1
 C        -0.178496        -0.070799        -0.179574
 C         1.286754         0.043269         0.180419
 C         1.966555         0.970474         1.218904
 C         3.214843         0.392587         0.582697
 C         3.073517        -1.151222         0.381651
 C         3.283792        -0.988934        -1.147298
 C         2.592592         0.334143        -0.892495
 O         2.478585         1.260330        -1.863713
 O         1.668041        -1.271547         0.606866
 H        -0.786498        -0.243733         0.828044
 H        -0.680394         0.693928        -0.637815
 H        -0.329169        -0.958550        -0.761752
 H         1.898341         1.959561         0.769536
 H         1.610465         0.792459         2.294974
 H         4.144176         0.717212         1.003680
 H         3.636960        -1.911680         1.032424
 H         4.419728        -0.866630        -1.313927
 H         2.899390        -1.795928        -1.843286
 H         2.494171         0.981599        -2.801472
