19
Iteration:  3206
 C        -0.233509         0.001923         0.086848
 C         1.269012         0.038892         0.094275
 C         2.013197         1.026747         1.120927
 C         3.255112         0.421593         0.469834
 C         3.143347        -1.161560         0.418634
 C         3.244733        -1.133401        -1.135150
 C         2.461286         0.260932        -0.911515
 O         2.582643         1.213681        -1.863520
 O         1.665634        -1.298965         0.541891
 H        -0.698299         0.031088         1.121965
 H        -0.534717         1.043046        -0.244913
 H        -0.695470        -0.712590        -0.517551
 H         1.829225         2.132165         0.787755
 H         1.761810         0.821797         2.276672
 H         4.204064         1.042735         0.424485
 H         3.799307        -1.798231         0.958957
 H         4.272338        -0.986255        -1.513953
 H         2.918179        -2.012837        -1.768043
 H         1.866479         1.869474        -1.921296
