19
Iteration:  2408
 C        -0.230349        -0.143508        -0.079768
 C         1.256121         0.090292         0.081749
 C         1.907728         0.955566         1.187476
 C         3.229484         0.485789         0.612716
 C         3.090705        -1.111881         0.379133
 C         3.308511        -1.076456        -1.082049
 C         2.571861         0.338904        -0.932538
 O         2.595009         1.249785        -1.872669
 O         1.668041        -1.269902         0.561292
 H        -0.573812        -0.359993         0.965228
 H        -0.903747         0.763773        -0.383309
 H        -0.470213        -0.981458        -0.637525
 H         1.770675         2.034081         1.111512
 H         1.713203         0.603982         2.235574
 H         4.244479         0.867986         0.833290
 H         3.771316        -1.909802         0.844411
 H         4.389465        -0.910318        -1.422487
 H         2.840405        -1.812978        -1.762468
 H         1.934440         1.104751        -2.615352
