19
Iteration:  2840
 C        -0.065969         0.050089        -0.312106
 C         1.320499         0.078672         0.169742
 C         1.977715         0.878330         1.232099
 C         3.317619         0.424973         0.542666
 C         3.197556        -1.171880         0.398454
 C         3.099623        -1.089249        -1.169583
 C         2.542016         0.349293        -0.825099
 O         2.334719         1.193508        -1.921649
 O         1.747991        -1.259143         0.719572
 H        -0.753398        -0.222421         0.722462
 H        -0.464115         0.828152        -0.905067
 H        -0.065660        -0.958767        -0.914886
 H         1.849308         1.989596         1.222252
 H         1.723212         0.566812         2.266031
 H         4.258501         0.900996         0.877999
 H         3.658142        -2.035939         0.940564
 H         4.062211        -0.847916        -1.538011
 H         2.622794        -1.748053        -1.918788
 H         1.649259         1.870248        -1.763046
