19
Iteration:  4706
 C        -0.274226        -0.030936        -0.016789
 C         1.243417         0.049028         0.168825
 C         1.949854         0.985738         1.208731
 C         3.259533         0.495790         0.402610
 C         3.164222        -1.101278         0.437309
 C         3.285389        -1.161063        -1.228576
 C         2.456786         0.232604        -0.935687
 O         2.567204         1.286343        -1.912050
 O         1.712599        -1.299913         0.691018
 H        -0.649408        -0.050523         0.961443
 H        -0.634185         0.856147        -0.435459
 H        -0.595621        -0.907450        -0.659107
 H         2.159260         2.056821         1.251976
 H         1.969528         0.661346         2.221260
 H         4.137614         1.103719         0.439120
 H         3.678952        -1.653414         1.246371
 H         4.307461        -0.991029        -1.356162
 H         2.741937        -1.973206        -1.784626
 H         1.919669         1.013795        -2.597403
