19
Iteration:  1939
 C        -0.107660        -0.028622        -0.252934
 C         1.312105         0.045524         0.097710
 C         1.949621         0.983350         1.081900
 C         3.307411         0.444004         0.545252
 C         3.079983        -1.226195         0.488083
 C         3.369185        -1.067573        -1.068141
 C         2.551051         0.247977        -0.825879
 O         2.293513         1.348639        -1.750161
 O         1.656112        -1.286881         0.577208
 H        -0.715778        -0.324852         0.715323
 H        -0.609874         0.950291        -0.593587
 H        -0.399350        -0.799166        -0.855820
 H         1.653888         2.022526         0.668180
 H         1.729965         0.889608         2.153171
 H         4.388067         0.759215         0.552398
 H         3.447777        -2.105548         1.014420
 H         4.392169        -0.841574        -1.205919
 H         3.042000        -1.822068        -1.758511
 H         2.858338         1.043075        -2.517720
