19
Iteration:   868
 C        -0.155512         0.130857        -0.312069
 C         1.239855        -0.108646         0.162870
 C         1.891446         0.995114         1.080818
 C         3.234866         0.428871         0.558427
 C         3.127234        -1.158087         0.436085
 C         3.230437        -1.136106        -1.127210
 C         2.657681         0.320448        -0.829846
 O         2.371757         1.335041        -1.752145
 O         1.798515        -1.390075         0.706453
 H        -0.902486         0.437073         0.464076
 H         0.018045         1.096000        -0.965687
 H        -0.574972        -0.521481        -1.146999
 H         1.678382         2.086076         0.743396
 H         1.691859         0.949831         2.228628
 H         4.309832         0.628131         0.781747
 H         3.752174        -1.861193         0.959090
 H         4.216219        -1.193841        -1.592286
 H         2.545018        -1.797708        -1.556505
 H         2.359217         0.920883        -2.608754
