19
Iteration:  4220charge 0 multiplicity 1
 C        -0.309895        -0.025766         0.019837
 C         1.295326         0.102457         0.108669
 C         2.006892         0.970346         1.204223
 C         3.264925         0.447363         0.459030
 C         3.275759        -1.069146         0.405553
 C         3.300235        -1.087423        -1.081614
 C         2.501328         0.253800        -0.887746
 O         2.402593         1.146130        -1.930858
 O         1.660950        -1.323421         0.539312
 H        -0.826522        -0.104997         1.090283
 H        -0.550712         1.037635        -0.389468
 H        -0.541329        -0.842817        -0.664755
 H         1.794658         2.047438         0.991022
 H         1.835036         0.804609         2.230287
 H         4.288818         0.926972         0.356091
 H         3.618113        -1.889693         1.086939
 H         4.154226        -0.742301        -1.631264
 H         2.989357        -2.008680        -1.609341
 H         2.732143         2.036080        -1.748045
