19
Iteration:  2094charge 0 multiplicity 1
 C        -0.179702        -0.064145        -0.168665
 C         1.277787         0.008475         0.160627
 C         1.930182         0.872881         1.188027
 C         3.269933         0.457771         0.481324
 C         3.089949        -1.084776         0.438970
 C         3.171292        -1.023640        -1.085219
 C         2.484979         0.303018        -0.897908
 O         2.543893         1.255997        -1.881266
 O         1.717769        -1.274946         0.624106
 H        -0.797857        -0.269913         0.832104
 H        -0.458596         0.918458        -0.421865
 H        -0.397804        -0.677946        -0.999251
 H         1.693759         1.977404         1.127791
 H         1.655738         0.370095         2.178250
 H         4.242009         0.952322         0.691857
 H         3.728514        -1.624292         1.147697
 H         4.200162        -0.845886        -1.472110
 H         2.644502        -1.738277        -1.744145
 H         3.295988         1.143176        -2.441451
