19
Iteration:  2602charge 0 multiplicity 1
 C        -0.241540         0.011359        -0.150429
 C         1.272114        -0.006972         0.131106
 C         1.927804         0.935462         1.163931
 C         3.254116         0.470471         0.507068
 C         3.150313        -1.115432         0.395137
 C         3.307789        -1.089925        -1.133583
 C         2.591953         0.271984        -0.897119
 O         2.388038         1.277329        -1.787197
 O         1.698763        -1.302056         0.627387
 H        -0.665593        -0.340577         0.791612
 H        -0.551536         1.042075        -0.348766
 H        -0.354248        -0.664380        -1.000378
 H         1.816524         2.007633         0.942138
 H         1.692001         0.801551         2.248364
 H         4.269528         0.884660         0.700557
 H         3.675168        -1.879622         1.046232
 H         4.337331        -0.818633        -1.401065
 H         2.972352        -1.973879        -1.740518
 H         2.791306         1.150299        -2.680542
