19
Iteration:  1151charge 0 multiplicity 1
 C        -0.161926         0.111456        -0.366271
 C         1.328744        -0.037532         0.036667
 C         1.924206         0.901670         1.096978
 C         3.281812         0.425500         0.584165
 C         3.190766        -1.096581         0.538199
 C         3.235642        -1.048160        -1.023680
 C         2.513593         0.226136        -0.872303
 O         2.354205         1.275114        -1.771920
 O         1.709822        -1.356581         0.672700
 H        -0.645815        -0.276337         0.518420
 H        -0.511970         1.133153        -0.437598
 H        -0.446109        -0.416147        -1.248087
 H         1.818139         2.027633         0.927215
 H         1.524154         0.748045         2.098238
 H         4.309623         0.977241         0.655021
 H         3.794347        -1.851692         1.042889
 H         4.256457        -0.751443        -1.531794
 H         2.632062        -1.769366        -1.711569
 H         3.014174         1.222642        -2.450444
