19
Iteration:  2328charge 0 multiplicity 1
 C        -0.050178         0.030005        -0.452730
 C         1.337257         0.017213         0.174822
 C         2.039746         0.903375         1.210529
 C         3.240136         0.455600         0.557436
 C         3.120625        -1.145722         0.459314
 C         3.170531        -1.114487        -1.081679
 C         2.541031         0.332223        -0.856752
 O         2.284186         1.332811        -1.784034
 O         1.754425        -1.333509         0.688514
 H        -0.796622        -0.021453         0.184528
 H        -0.192041         0.995945        -0.999391
 H        -0.088174        -0.842215        -1.245269
 H         1.844901         2.031880         1.108813
 H         1.816275         0.594676         2.255532
 H         4.265721         0.882331         0.673977
 H         3.833659        -1.771554         0.950136
 H         4.144666        -1.019258        -1.427647
 H         2.754524        -1.988375        -1.557858
 H         1.537111         0.950715        -2.344065
