19
Iteration:    61
 C        -0.170061         0.137264        -0.294294
 C         1.339479         0.095425         0.152945
 C         2.076436         1.060243         1.183759
 C         3.291440         0.345543         0.521604
 C         3.120678        -1.316935         0.470839
 C         3.198229        -1.071961        -1.070216
 C         2.502348         0.249253        -0.855818
 O         2.428633         1.155701        -1.891071
 O         1.610245        -1.263322         0.650024
 H        -0.615231        -0.250466         0.600887
 H        -0.663245         1.052410        -0.581154
 H        -0.340149        -0.643669        -1.058340
 H         1.915582         2.104685         0.791397
 H         1.860249         1.031745         2.263861
 H         4.407019         0.560157         0.448240
 H         3.665955        -2.064354         1.052468
 H         4.333780        -0.786303        -1.294073
 H         2.837466        -1.740678        -1.961087
 H         2.198146         2.000606        -1.519752
