19
Iteration:  2633charge 0 multiplicity 1
 C        -0.031914         0.057635        -0.379153
 C         1.322916        -0.006276         0.156224
 C         1.952742         0.870609         1.272981
 C         3.272583         0.469775         0.501945
 C         3.148454        -1.056064         0.423589
 C         3.068175        -1.063052        -1.091545
 C         2.487957         0.319414        -0.834803
 O         2.287006         1.226707        -1.884033
 O         1.803165        -1.374848         0.704766
 H        -0.896095        -0.198471         0.417025
 H        -0.205644         1.050865        -0.618618
 H        -0.071613        -0.627267        -1.290345
 H         1.978061         1.961967         1.103212
 H         1.834024         0.568426         2.304862
 H         4.354141         0.758765         0.663139
 H         3.830363        -1.677418         1.047419
 H         4.085884        -0.783078        -1.535060
 H         2.521303        -2.086096        -1.522787
 H         2.995038         1.828985        -2.097076
