19
Iteration:  1907
 C        -0.263050         0.007147        -0.173499
 C         1.281346        -0.049330         0.099190
 C         1.891892         0.991481         1.055410
 C         3.270636         0.404614         0.550436
 C         3.080913        -1.143695         0.508820
 C         3.354743        -1.039995        -1.124759
 C         2.559551         0.268350        -0.855878
 O         2.448746         1.358011        -1.796319
 O         1.730748        -1.356770         0.622490
 H        -0.724673        -0.377497         0.864977
 H        -0.625370         1.102320        -0.385113
 H        -0.692141        -0.621892        -1.042922
 H         1.656776         1.962060         0.533799
 H         1.712985         0.909794         2.121357
 H         4.306556         0.827325         0.774564
 H         3.634396        -1.936438         0.971675
 H         4.360096        -0.870704        -1.311858
 H         2.923163        -1.788516        -1.733211
 H         2.990625         1.047763        -2.532734
