19
Iteration:  1362
 C        -0.148408        -0.011065        -0.387605
 C         1.335784         0.038097         0.101902
 C         2.017141         0.982670         1.177204
 C         3.312986         0.383458         0.516423
 C         3.101746        -1.102317         0.492777
 C         3.290130        -1.155885        -0.998685
 C         2.561400         0.308668        -0.866598
 O         2.208045         1.323479        -1.746140
 O         1.676829        -1.348410         0.576634
 H        -0.756072        -0.454617         0.270893
 H        -0.492974         1.083938        -0.667204
 H        -0.000012        -0.536650        -1.323585
 H         2.117152         2.021601         0.932950
 H         1.823893         0.877515         2.273641
 H         4.252133         0.784888         0.760329
 H         3.721269        -1.551485         1.259077
 H         4.430267        -1.267814        -1.340685
 H         2.655900        -1.966238        -1.438206
 H         2.955227         1.618272        -2.245708
