19
Iteration:  2282charge 0 multiplicity 1
 C        -0.207526         0.041379        -0.299443
 C         1.266209        -0.007709         0.117586
 C         1.901770         0.943674         1.142521
 C         3.290842         0.432634         0.535987
 C         3.148823        -1.211349         0.453561
 C         3.236685        -1.026065        -1.081354
 C         2.526888         0.266544        -0.864024
 O         2.467371         1.315546        -1.807620
 O         1.792918        -1.313875         0.658695
 H        -0.780168        -0.419268         0.549472
 H        -0.628932         0.952603        -0.471721
 H        -0.333850        -0.637614        -1.209424
 H         1.893680         1.997359         0.819139
 H         1.692982         0.881344         2.267657
 H         4.267260         0.823242         0.738612
 H         3.791825        -1.828526         1.153882
 H         4.273868        -0.997555        -1.436277
 H         2.679449        -1.727987        -1.749375
 H         1.550866         1.197386        -2.142728
