19
Iteration:   559charge 0 multiplicity 1
 C        -0.123873         0.137553        -0.228943
 C         1.394376         0.049020         0.156126
 C         2.033292         0.951882         1.251374
 C         3.410686         0.368418         0.532390
 C         3.064297        -1.242027         0.434435
 C         3.075969        -1.058619        -1.141897
 C         2.614001         0.277212        -0.826311
 O         2.430236         1.194623        -1.941114
 O         1.617263        -1.273385         0.660935
 H        -0.711966         0.051440         0.689858
 H        -0.312425         1.068441        -0.640183
 H        -0.489741        -0.572292        -0.905684
 H         1.781477         2.021034         0.973664
 H         1.826791         0.916423         2.338514
 H         4.355746         0.799387         0.592577
 H         3.574449        -1.995519         1.012377
 H         4.186817        -0.856143        -1.464741
 H         2.446108        -1.686556        -1.838415
 H         1.492324         1.243250        -2.208890
