19
Iteration:  1598
 C        -0.149332         0.053632        -0.199180
 C         1.278341        -0.112732         0.067560
 C         1.914673         0.921816         1.011672
 C         3.235381         0.490006         0.494896
 C         3.144315        -1.151087         0.543567
 C         3.341457        -1.106792        -1.039851
 C         2.561702         0.250946        -0.825199
 O         2.376136         1.435736        -1.773734
 O         1.676313        -1.415209         0.588119
 H        -0.755133         0.108529         0.804866
 H        -0.446262         0.963841        -0.685237
 H        -0.636628        -0.621050        -0.817505
 H         1.770336         1.902155         0.654046
 H         1.527630         0.757616         2.052941
 H         4.161490         1.024937         0.460321
 H         3.643432        -1.712916         1.325849
 H         4.505037        -0.882691        -1.333894
 H         2.822774        -1.934627        -1.589490
 H         3.172943         1.447883        -2.349744
