19
Iteration:  3795
 C        -0.097431         0.173784        -0.331994
 C         1.401260         0.006840         0.151198
 C         2.051243         0.919938         1.189844
 C         3.344027         0.472704         0.511707
 C         3.215527        -1.149653         0.458022
 C         3.134171        -1.149715        -1.102607
 C         2.542058         0.243604        -0.888449
 O         2.035641         1.169765        -1.868743
 O         1.805049        -1.266899         0.741257
 H        -0.964012         0.076694         0.506106
 H        -0.028466         1.202123        -0.645180
 H        -0.300967        -0.535283        -1.070720
 H         1.856560         1.976226         1.171005
 H         1.866591         0.503603         2.164098
 H         4.363581         0.875575         0.594384
 H         3.695219        -1.944746         1.065266
 H         4.035599        -1.086421        -1.583127
 H         2.713776        -1.970287        -1.600835
 H         2.739407         1.777727        -2.218144
