19
Iteration:   694
 C        -0.100840         0.159083        -0.285228
 C         1.327471        -0.024733         0.192819
 C         1.996910         0.927184         1.209909
 C         3.321721         0.416545         0.491290
 C         3.121253        -1.143713         0.412495
 C         3.105810        -1.075071        -1.063498
 C         2.508546         0.312797        -0.844863
 O         2.454212         1.234378        -1.989407
 O         1.674161        -1.396168         0.726055
 H        -0.822020         0.275731         0.479001
 H        -0.151295         1.003750        -0.944275
 H        -0.533268        -0.666074        -0.885934
 H         1.953309         2.048660         1.057350
 H         1.709163         0.630212         2.263871
 H         4.389602         0.776114         0.637738
 H         3.817785        -1.751546         1.008475
 H         4.157117        -1.236289        -1.555746
 H         2.342633        -1.888869        -1.525638
 H         2.241599         2.059336        -1.487259
