19
Iteration:  3737
 C        -0.187264        -0.019132        -0.044258
 C         1.257163         0.027598         0.145889
 C         2.007250         0.998159         1.076644
 C         3.243453         0.442891         0.487041
 C         3.248996        -1.112064         0.397204
 C         3.135504        -1.170281        -1.177077
 C         2.583988         0.278094        -0.896837
 O         2.421775         1.325963        -1.840595
 O         1.701437        -1.306693         0.703355
 H        -0.576729        -0.141052         0.965242
 H        -0.796702         0.842945        -0.470900
 H        -0.534657        -0.864641        -0.665793
 H         2.006011         2.047620         0.687961
 H         1.688882         0.931350         2.210180
 H         4.299769         0.805697         0.618699
 H         3.796672        -1.701756         1.121791
 H         4.073029        -0.938731        -1.678621
 H         2.495336        -1.994332        -1.577986
 H         2.636968         0.901166        -2.683430
