19
Iteration:  4547charge 0 multiplicity 1
 C        -0.232102         0.030340         0.007975
 C         1.241318        -0.036523         0.234139
 C         2.012685         0.997760         1.111450
 C         3.225388         0.445049         0.346719
 C         3.202250        -1.094105         0.395802
 C         3.332685        -1.104856        -1.066670
 C         2.401595         0.216129        -0.994414
 O         2.559035         1.332771        -1.818100
 O         1.677310        -1.370114         0.588978
 H        -0.774988         0.008267         1.025149
 H        -0.602355         1.033241        -0.248317
 H        -0.819156        -0.794175        -0.519111
 H         1.667099         2.040074         0.968916
 H         1.879085         0.776562         2.173136
 H         4.268359         0.843114         0.449821
 H         3.733468        -1.578517         1.110519
 H         4.443392        -0.946646        -1.333152
 H         2.776352        -1.895632        -1.601870
 H         1.975952         1.199007        -2.592308
