19
Iteration:  1772charge 0 multiplicity 1
 C        -0.121758        -0.031835        -0.291253
 C         1.268888         0.012681         0.185247
 C         1.929713         0.934091         1.271768
 C         3.195719         0.488404         0.600270
 C         3.079442        -1.144211         0.347275
 C         3.286092        -1.003511        -1.098239
 C         2.582251         0.325947        -0.847232
 O         2.450268         1.229559        -1.916494
 O         1.686774        -1.317145         0.656415
 H        -0.996067        -0.138278         0.490392
 H        -0.413787         0.897328        -0.861275
 H        -0.339084        -0.973613        -0.855004
 H         1.607592         1.928226         1.013916
 H         1.659970         0.644748         2.335122
 H         4.164852         0.862226         0.784161
 H         3.706325        -1.957394         0.810581
 H         4.235925        -0.983206        -1.474724
 H         2.684777        -1.703126        -1.630844
 H         3.377691         1.383342        -2.271040
