19
Iteration:  1088charge 0 multiplicity 1
 C        -0.221785        -0.013479        -0.258190
 C         1.252051        -0.037254         0.093272
 C         1.922466         0.963996         1.085419
 C         3.309223         0.392841         0.649813
 C         3.135771        -1.165489         0.462606
 C         3.210262        -1.026768        -1.083554
 C         2.590273         0.260148        -0.853356
 O         2.449228         1.303195        -1.894750
 O         1.722821        -1.314611         0.651393
 H        -0.833614         0.168231         0.636764
 H        -0.321122         0.954878        -0.987532
 H        -0.635273        -0.955383        -0.634764
 H         1.879676         1.927119         0.673564
 H         1.494009         0.803978         2.064729
 H         4.332770         0.714145         0.757839
 H         3.710446        -1.912941         1.062455
 H         4.242267        -0.869839        -1.379709
 H         2.726698        -1.755269        -1.661080
 H         2.799841         2.149692        -1.600499
