19
Iteration:  4371charge 0 multiplicity 1
 C        -0.208471         0.013695         0.005959
 C         1.257419        -0.022379         0.204043
 C         1.971380         0.914352         1.216990
 C         3.213132         0.495995         0.415372
 C         3.145781        -1.053089         0.433805
 C         3.235338        -1.067814        -1.140675
 C         2.529444         0.256070        -0.943530
 O         2.565724         1.298354        -1.956429
 O         1.670399        -1.324938         0.649386
 H        -0.452447        -0.048685         1.069457
 H        -0.491327         0.854917        -0.528891
 H        -0.614983        -0.799071        -0.558189
 H         1.705970         1.999400         1.190700
 H         1.872010         0.494394         2.202793
 H         4.224686         0.968843         0.265652
 H         3.874054        -1.820326         0.886329
 H         4.229534        -1.081183        -1.590029
 H         2.583751        -1.983988        -1.425539
 H         2.093696         0.940735        -2.713045
