19
Iteration:  4288charge 0 multiplicity 1
 C        -0.141559         0.026458        -0.351664
 C         1.338844         0.015623         0.180751
 C         2.119596         1.016520         1.167580
 C         3.336124         0.450861         0.460334
 C         3.218655        -1.149270         0.451238
 C         3.091967        -1.156381        -1.132865
 C         2.485533         0.218189        -0.829910
 O         2.266143         1.289541        -1.759400
 O         1.750843        -1.293742         0.702490
 H        -1.025926        -0.224717         0.338765
 H        -0.243214         1.182678        -0.582140
 H        -0.079124        -0.722952        -1.119020
 H         1.906633         2.064890         0.876774
 H         1.923442         0.866508         2.260479
 H         4.375770         0.793702         0.426626
 H         4.022035        -1.590519         0.943302
 H         3.976945        -0.891278        -1.786234
 H         2.655881        -2.060383        -1.462782
 H         1.354913         1.120140        -2.129628
