19
Iteration:  4185charge 0 multiplicity 1
 C        -0.168126         0.020425        -0.035776
 C         1.244643        -0.116558         0.143707
 C         1.898672         0.956829         1.114169
 C         3.339388         0.432839         0.428962
 C         3.140528        -1.110430         0.423486
 C         3.223455        -1.053172        -1.179875
 C         2.561419         0.316047        -0.939486
 O         2.391116         1.322505        -1.922984
 O         1.725127        -1.370049         0.802410
 H        -0.726665         0.031539         0.984665
 H        -0.308860         0.957806        -0.587291
 H        -0.579421        -0.825659        -0.734139
 H         1.763923         1.958055         0.745080
 H         1.717683         0.801996         2.152748
 H         4.248547         1.016494         0.538327
 H         3.761163        -1.902564         0.975253
 H         4.226010        -0.947017        -1.487705
 H         2.545679        -1.870504        -1.538098
 H         3.136351         1.720162        -2.388036
