19
Iteration:  2436
 C        -0.179796        -0.015108        -0.187421
 C         1.222561        -0.048398         0.196790
 C         1.912812         0.867126         1.136477
 C         3.223065         0.511995         0.489195
 C         3.132826        -1.113786         0.458237
 C         3.226696        -1.042428        -1.070078
 C         2.498178         0.346450        -0.866481
 O         2.591177         1.283020        -1.871701
 O         1.780337        -1.363235         0.643910
 H        -1.090369        -0.280932         0.639682
 H        -0.415350         1.023525        -0.379936
 H        -0.361597        -0.634243        -1.167066
 H         1.665332         1.958390         0.916332
 H         1.742998         0.755228         2.200130
 H         4.224799         1.011062         0.486749
 H         3.771524        -1.730280         1.019882
 H         4.172787        -0.874288        -1.527513
 H         2.595922        -1.725086        -1.696071
 H         1.852897         1.242111        -2.530964
