19
Iteration:  1305charge 0 multiplicity 1
 C        -0.152027         0.030244        -0.336828
 C         1.299061        -0.029843         0.093476
 C         1.969498         0.938893         1.188488
 C         3.322000         0.454169         0.604191
 C         3.155401        -1.148998         0.517228
 C         3.250275        -1.014539        -1.039212
 C         2.510422         0.317065        -0.865489
 O         2.319260         1.260759        -1.897918
 O         1.694009        -1.379867         0.609830
 H        -0.858829         0.006723         0.499553
 H        -0.381268         0.994669        -0.847867
 H        -0.511375        -0.695499        -0.986238
 H         1.805251         1.991102         0.914674
 H         1.783245         0.761573         2.284738
 H         4.287565         0.861233         0.965457
 H         3.668753        -1.830298         1.241891
 H         4.243346        -0.836830        -1.538274
 H         2.732690        -1.826674        -1.574672
 H         3.283369         1.446625        -2.102115
