19
Iteration:   863
 C        -0.151229         0.140668        -0.318501
 C         1.256405        -0.084268         0.090275
 C         1.906500         0.992729         1.075424
 C         3.252674         0.457315         0.589080
 C         3.145876        -1.161736         0.483522
 C         3.214012        -1.105321        -1.155112
 C         2.635570         0.238512        -0.787665
 O         2.355745         1.332740        -1.748001
 O         1.781468        -1.388609         0.694630
 H        -0.850089         0.281731         0.548454
 H        -0.015234         1.007336        -0.875908
 H        -0.634298        -0.471108        -1.077241
 H         1.886211         1.988712         0.755785
 H         1.653800         1.002057         2.085101
 H         4.312305         0.837993         0.830322
 H         3.767311        -1.963623         0.965225
 H         4.193089        -1.041644        -1.654922
 H         2.463402        -1.888050        -1.591574
 H         2.438774         0.938718        -2.651353
