19
Iteration:  4117charge 0 multiplicity 1
 C        -0.081938         0.052476        -0.387680
 C         1.371013        -0.040304         0.256562
 C         2.055223         0.967650         1.185859
 C         3.337935         0.433017         0.525703
 C         3.129825        -1.123171         0.365787
 C         3.145796        -1.060370        -1.142576
 C         2.578034         0.285914        -0.928384
 O         2.086284         1.220821        -1.843920
 O         1.766278        -1.294241         0.838075
 H        -0.813835        -0.140405         0.359747
 H        -0.139074         1.130956        -0.574185
 H        -0.240317        -0.639037        -1.362747
 H         2.145602         1.978692         0.864997
 H         1.808510         0.697342         2.250152
 H         4.379094         0.724820         0.489153
 H         3.697212        -1.898837         0.791287
 H         4.254659        -1.098495        -1.337941
 H         2.508479        -1.898423        -1.457248
 H         2.843517         1.669456        -2.231252
