19
Iteration:  2649charge 0 multiplicity 1
 C        -0.097322         0.056694        -0.456131
 C         1.314799         0.008519         0.213228
 C         2.020949         0.927328         1.241641
 C         3.306320         0.397329         0.588589
 C         3.210667        -1.195216         0.380833
 C         3.200494        -1.040883        -1.188799
 C         2.475421         0.267179        -0.841021
 O         2.204859         1.186760        -1.860100
 O         1.762518        -1.241559         0.781295
 H        -0.813658        -0.154740         0.235690
 H        -0.261608         1.140141        -0.924894
 H         0.025838        -0.654821        -1.244767
 H         1.714192         1.968730         1.119075
 H         1.725785         0.667706         2.290080
 H         4.196954         0.974543         0.698465
 H         3.826266        -1.941007         0.902712
 H         4.156696        -0.964010        -1.640490
 H         2.625864        -1.649119        -1.737079
 H         2.670946         1.966308        -1.500226
