19
Iteration:  2865charge 0 multiplicity 1
 C        -0.190256        -0.070438        -0.098529
 C         1.262390        -0.054441         0.128751
 C         2.086533         1.002526         1.180839
 C         3.285430         0.428894         0.574997
 C         3.123407        -1.132170         0.402377
 C         3.241307        -1.030515        -1.095834
 C         2.561823         0.353505        -0.905320
 O         2.435046         1.242911        -1.955106
 O         1.634128        -1.324027         0.578269
 H        -0.734558        -0.177962         1.008524
 H        -0.490525         0.962084        -0.590808
 H        -0.525134        -0.890114        -0.686488
 H         2.102810         2.055372         1.108875
 H         1.777065         0.775057         2.227595
 H         4.251085         0.728864         0.832729
 H         3.653286        -1.839931         1.012875
 H         4.347246        -0.839731        -1.455740
 H         2.790174        -1.839605        -1.749607
 H         1.803218         1.926896        -1.745028
