19
Iteration:  2477
 C        -0.056556         0.043313        -0.375559
 C         1.401253         0.039047         0.138137
 C         1.993097         0.968728         1.083308
 C         3.303035         0.350986         0.506955
 C         3.136823        -1.163352         0.467859
 C         3.244122        -1.067920        -1.021950
 C         2.499248         0.207467        -0.888226
 O         2.195717         1.344538        -1.654935
 O         1.745766        -1.252897         0.627328
 H        -0.790225        -0.457202         0.419920
 H        -0.310339         0.945863        -0.784336
 H        -0.084493        -0.676420        -1.216415
 H         1.890583         1.969850         0.713699
 H         1.704350         0.810773         2.116126
 H         4.244522         0.802371         0.710689
 H         3.657070        -1.901115         1.065357
 H         4.345062        -0.909036        -1.308922
 H         2.876408        -2.050189        -1.577749
 H         1.676576         1.002926        -2.421036
