19
Iteration:  2309
 C         0.004957        -0.044467        -0.394349
 C         1.318498         0.012397         0.210796
 C         1.999622         0.982656         1.338596
 C         3.359271         0.462976         0.517922
 C         3.107711        -1.215684         0.433625
 C         3.288469        -1.031972        -1.122774
 C         2.503153         0.268401        -0.857931
 O         2.301131         1.305093        -1.840095
 O         1.594646        -1.248845         0.634415
 H        -0.810464        -0.470547         0.262819
 H        -0.338325         0.971048        -0.948136
 H         0.030696        -0.892861        -1.115774
 H         1.918359         2.065092         1.119186
 H         1.798215         0.634480         2.346482
 H         4.460865         0.752319         0.585954
 H         3.561316        -1.861982         1.155509
 H         4.335559        -0.918532        -1.449211
 H         2.777270        -1.817932        -1.688988
 H         1.478693         0.970795        -2.290157
