19
Iteration:  4618
 C        -0.103841         0.042644        -0.408380
 C         1.273179        -0.057010         0.250428
 C         2.118691         1.033371         1.185733
 C         3.288500         0.471910         0.375435
 C         3.172935        -1.108874         0.406375
 C         3.180280        -1.136586        -1.099403
 C         2.461592         0.236508        -0.887072
 O         2.284718         1.285721        -1.719040
 O         1.714614        -1.298003         0.735904
 H        -0.801093        -0.282173         0.378903
 H        -0.406557         1.060672        -0.637314
 H        -0.123926        -0.808328        -1.145499
 H         1.960807         2.133399         1.053962
 H         2.434244         0.901137         2.241263
 H         4.360103         0.665754         0.395833
 H         3.926708        -1.812387         0.962746
 H         4.269548        -1.099854        -1.413054
 H         2.632579        -2.091020        -1.393627
 H         1.584166         1.284609        -2.390221
