19
Iteration:  3511
 C        -0.175968        -0.006366        -0.192198
 C         1.329098         0.013909         0.141721
 C         2.055491         0.917261         1.207578
 C         3.292697         0.405848         0.541471
 C         3.152761        -1.099950         0.450895
 C         3.213683        -1.069977        -1.119180
 C         2.497965         0.254801        -0.975456
 O         2.395940         1.318113        -1.911793
 O         1.699086        -1.274256         0.743717
 H        -0.879944        -0.069729         0.738612
 H        -0.472855         0.925743        -0.610643
 H        -0.468453        -0.809497        -0.776573
 H         1.868821         1.942506         1.084539
 H         1.768203         0.646428         2.198208
 H         4.358792         0.822731         0.494399
 H         3.890925        -1.805149         0.811626
 H         4.217698        -1.079253        -1.513214
 H         2.604976        -1.886866        -1.577962
 H         1.734627         1.165450        -2.621530
