19
Iteration:  2547charge 0 multiplicity 1
 C        -0.260812        -0.008789        -0.137544
 C         1.212435        -0.053766         0.116984
 C         1.890898         0.931245         1.175150
 C         3.178138         0.492922         0.447576
 C         3.181326        -1.076737         0.474948
 C         3.242192        -1.098139        -1.103446
 C         2.585266         0.269716        -0.918637
 O         2.578210         1.333322        -1.811663
 O         1.778520        -1.326650         0.606167
 H        -0.716533        -0.208753         0.870268
 H        -0.443858         0.945804        -0.691836
 H        -0.579578        -0.908702        -0.755343
 H         1.716490         2.027703         1.126516
 H         1.890642         0.565141         2.226208
 H         4.252188         0.872815         0.474937
 H         3.769566        -1.772492         1.145760
 H         4.202743        -1.119793        -1.586293
 H         2.586626        -1.797219        -1.603160
 H         1.797557         1.350445        -2.387993
