19
Iteration:  3760charge 0 multiplicity 1
 C        -0.114324        -0.006887        -0.152438
 C         1.277890        -0.014130         0.236087
 C         2.119055         1.059632         1.120338
 C         3.341118         0.480904         0.506708
 C         3.114445        -1.194755         0.400589
 C         3.184418        -1.051705        -1.121850
 C         2.495461         0.210843        -0.881718
 O         2.265944         1.210739        -1.822209
 O         1.722166        -1.265891         0.665904
 H        -0.917884        -0.079005         0.647999
 H        -0.335014         0.931328        -0.751890
 H        -0.291864        -0.701511        -0.931211
 H         1.826575         2.074106         0.863257
 H         1.957982         0.853518         2.259091
 H         4.371047         0.824471         0.234204
 H         3.571074        -1.987709         1.006185
 H         4.080315        -0.600125        -1.446781
 H         2.687825        -1.783104        -1.790238
 H         2.746206         1.077221        -2.680166
