19
Iteration:  2270charge 0 multiplicity 1
 C        -0.202448         0.029791        -0.212636
 C         1.313305        -0.074982         0.135146
 C         1.865699         0.968096         1.104464
 C         3.231902         0.463430         0.534633
 C         3.210397        -1.129796         0.438373
 C         3.269910        -1.146473        -1.131906
 C         2.566252         0.290504        -0.861178
 O         2.519462         1.362788        -1.798461
 O         1.712293        -1.351971         0.669751
 H        -0.941700        -0.423386         0.607360
 H        -0.325242         1.038268        -0.289307
 H        -0.529748        -0.435291        -1.139367
 H         1.600572         1.933601         0.684232
 H         1.403131         0.831878         2.138628
 H         4.147162         1.005605         0.536652
 H         3.740789        -1.942702         1.042105
 H         4.269355        -0.926304        -1.641226
 H         2.692828        -2.047312        -1.492783
 H         1.714518         1.520673        -2.272473
