19
Iteration:  3716charge 0 multiplicity 1
 C        -0.183012        -0.065485         0.038851
 C         1.271683        -0.038513         0.140745
 C         1.944605         0.940564         1.106650
 C         3.252998         0.503358         0.380139
 C         3.091038        -1.147861         0.440068
 C         3.168087        -1.112654        -1.159319
 C         2.501780         0.264163        -1.009808
 O         2.579440         1.376010        -1.876661
 O         1.772205        -1.254904         0.744259
 H        -0.695394        -0.093562         1.072289
 H        -0.597310         0.968496        -0.320180
 H        -0.706830        -0.753344        -0.634605
 H         1.660751         1.951782         0.827491
 H         1.751173         0.620979         2.202480
 H         4.303662         0.920233         0.534175
 H         3.632937        -1.919472         0.992130
 H         4.202214        -1.266714        -1.306085
 H         2.575604        -1.931642        -1.581520
 H         2.218392         0.986824        -2.724781
