19
Iteration:  4762charge 0 multiplicity 1
 C        -0.167737        -0.027875        -0.213381
 C         1.315739         0.077547         0.166186
 C         2.086179         1.009768         1.099540
 C         3.342364         0.456989         0.400617
 C         3.106184        -1.176162         0.371471
 C         3.221911        -1.098079        -1.099591
 C         2.513851         0.237797        -0.851401
 O         2.287619         1.244458        -1.739796
 O         1.721135        -1.248354         0.731856
 H        -0.855603        -0.286639         0.526926
 H        -0.357008         0.947335        -0.530675
 H        -0.283346        -0.832973        -1.011122
 H         2.027167         2.075064         0.804677
 H         1.936407         0.973950         2.183626
 H         4.422319         0.743196         0.428828
 H         3.695471        -1.623698         1.140279
 H         4.185638        -1.115916        -1.537736
 H         2.707139        -1.973360        -1.600854
 H         1.885294         0.935312        -2.556906
