19
Iteration:  3958
 C        -0.054460         0.082497        -0.340890
 C         1.375024         0.038917         0.202907
 C         2.080571         1.045722         1.176999
 C         3.430548         0.435443         0.563948
 C         3.189542        -1.181964         0.444331
 C         3.237220        -1.093351        -1.126037
 C         2.491403         0.230049        -0.859841
 O         2.036602         1.144757        -1.798782
 O         1.670572        -1.310923         0.630832
 H        -0.855264         0.000378         0.453734
 H        -0.245635         1.084914        -0.501664
 H        -0.357409        -0.533276        -1.049751
 H         1.907569         2.060972         0.664110
 H         2.252136         1.121941         2.276970
 H         4.397276         0.906438         0.644613
 H         3.657233        -1.932513         1.140367
 H         4.218184        -1.029885        -1.678011
 H         2.579695        -1.938992        -1.618162
 H         2.648282         1.756595        -2.185226
