19
Iteration:  2086charge 0 multiplicity 1
 C        -0.171525        -0.039730        -0.136960
 C         1.251784        -0.017701         0.164012
 C         1.885069         0.873234         1.207448
 C         3.223697         0.493002         0.463787
 C         3.151393        -1.087269         0.480801
 C         3.174469        -1.027664        -1.122109
 C         2.539431         0.294458        -0.911955
 O         2.603129         1.316611        -1.914632
 O         1.666066        -1.330125         0.658575
 H        -0.824111        -0.312894         0.713959
 H        -0.526518         0.933854        -0.392430
 H        -0.540648        -0.759566        -1.063700
 H         1.664431         1.909048         1.206499
 H         1.842497         0.613293         2.279010
 H         4.232216         0.813652         0.642912
 H         3.934119        -1.696228         1.064317
 H         4.064124        -0.757829        -1.595420
 H         2.646810        -1.764130        -1.669105
 H         3.075977         0.916296        -2.636763
