19
Iteration:  2241
 C        -0.282655        -0.014567        -0.092356
 C         1.260535        -0.011811         0.076953
 C         1.923789         0.950693         1.108530
 C         3.224636         0.447322         0.409448
 C         3.120704        -1.130482         0.512652
 C         3.307045        -1.068439        -1.068483
 C         2.536670         0.257462        -0.908863
 O         2.588385         1.356221        -1.749182
 O         1.741045        -1.351429         0.592757
 H        -0.741592        -0.377934         0.731121
 H        -0.630568         1.060251        -0.276808
 H        -0.745811        -0.699929        -0.950037
 H         1.589592         1.940071         0.731011
 H         1.614581         0.619933         2.090201
 H         4.225871         0.929003         0.321737
 H         3.613598        -1.821176         1.199457
 H         4.269245        -0.843515        -1.380561
 H         2.862133        -1.872613        -1.587593
 H         2.121895         1.363781        -2.634016
