19
Iteration:  4032charge 0 multiplicity 1
 C        -0.157138        -0.065993        -0.009419
 C         1.313152         0.014463         0.129149
 C         1.972501         1.016913         1.107084
 C         3.303532         0.457770         0.495915
 C         3.162566        -1.155220         0.407554
 C         3.165033        -1.047915        -1.182122
 C         2.519582         0.258695        -0.828623
 O         2.437920         1.254030        -1.896648
 O         1.673353        -1.247732         0.639131
 H        -0.575542        -0.126619         1.013743
 H        -0.712303         0.763136        -0.432479
 H        -0.547203        -1.074424        -0.401318
 H         1.830002         2.024283         0.813466
 H         1.654572         0.885189         2.140424
 H         4.314743         0.755429         0.696731
 H         3.557603        -1.896704         1.114869
 H         4.037220        -0.785472        -1.705344
 H         2.761081        -1.893656        -1.740182
 H         3.075445         1.044458        -2.623763
