19
Iteration:  1764charge 0 multiplicity 1
 C        -0.172486        -0.102680        -0.257786
 C         1.256618         0.061924         0.170665
 C         1.943142         0.912329         1.282720
 C         3.256014         0.474519         0.626197
 C         3.044770        -1.129816         0.396092
 C         3.225876        -1.007113        -1.108841
 C         2.604610         0.358669        -0.838000
 O         2.457768         1.193551        -1.944318
 O         1.684453        -1.297908         0.598365
 H        -0.842950        -0.124816         0.754718
 H        -0.464739         0.819453        -1.021569
 H        -0.179275        -0.852749        -0.973118
 H         1.632901         1.969494         1.013362
 H         1.680566         0.642665         2.299068
 H         4.264122         0.812350         0.889148
 H         3.795021        -1.802491         0.898984
 H         4.287442        -0.792444        -1.360159
 H         2.752558        -1.649715        -1.839914
 H         3.416798         1.368375        -2.185995
