19
Iteration:  2160
 C        -0.055264         0.162324        -0.448907
 C         1.298165        -0.047892         0.148824
 C         1.955136         0.974210         1.152062
 C         3.269074         0.439464         0.462729
 C         3.225351        -1.172572         0.446242
 C         3.255787        -1.147313        -1.148947
 C         2.501249         0.239395        -0.805961
 O         2.183196         1.262384        -1.721713
 O         1.750394        -1.337927         0.739968
 H        -0.945385         0.285945         0.307050
 H        -0.118750         1.046443        -0.943237
 H        -0.290879        -0.538658        -1.177643
 H         1.760231         2.061031         1.123809
 H         1.567800         0.595876         2.168772
 H         4.259802         0.907523         0.490821
 H         3.753589        -1.771514         1.246546
 H         4.308686        -0.950379        -1.538580
 H         2.825320        -2.024871        -1.681015
 H         3.066644         1.753854        -1.762168
