19
Iteration:  3740
 C        -0.197201        -0.023207        -0.079520
 C         1.276188         0.037970         0.147655
 C         2.008095         1.015931         1.100982
 C         3.265645         0.442533         0.461126
 C         3.234918        -1.125772         0.390880
 C         3.134752        -1.142110        -1.163518
 C         2.556176         0.287046        -0.874879
 O         2.405885         1.304499        -1.824900
 O         1.714883        -1.305696         0.683087
 H        -0.662223        -0.140446         1.023397
 H        -0.763844         0.862244        -0.443413
 H        -0.521636        -0.855140        -0.626414
 H         2.011142         1.972790         0.643026
 H         1.756105         0.989154         2.138456
 H         4.291891         0.832901         0.619841
 H         3.794879        -1.788570         1.079254
 H         4.110566        -1.091071        -1.594193
 H         2.570661        -1.947070        -1.555324
 H         2.665134         0.816783        -2.614838
