19
Iteration:  2972charge 0 multiplicity 1
 C        -0.088817        -0.028080        -0.407844
 C         1.270622         0.031142         0.230384
 C         2.113412         0.939797         1.185471
 C         3.334710         0.403623         0.500763
 C         3.173483        -1.192063         0.386885
 C         3.128026        -1.050698        -1.093923
 C         2.551175         0.315464        -0.859046
 O         2.248503         1.235728        -1.855542
 O         1.703377        -1.262053         0.755253
 H        -0.918277        -0.149441         0.382673
 H        -0.263424         0.956324        -0.757076
 H        -0.028748        -0.660463        -1.340270
 H         1.893790         2.053998         0.989581
 H         2.035130         0.616087         2.313615
 H         4.316150         0.771433         0.556826
 H         3.797741        -1.870261         0.954271
 H         4.123536        -1.007317        -1.460762
 H         2.691540        -1.798650        -1.743670
 H         1.854755         2.011072        -1.407441
