19
Iteration:  4723charge 0 multiplicity 1
 C        -0.243795        -0.001461        -0.008460
 C         1.272180        -0.047790         0.149125
 C         1.971716         0.966741         1.059864
 C         3.241981         0.476534         0.427834
 C         3.139159        -1.135240         0.434459
 C         3.159556        -1.088424        -1.142117
 C         2.571446         0.252452        -0.949357
 O         2.533935         1.296101        -1.839366
 O         1.774496        -1.272522         0.742400
 H        -0.723795        -0.145986         1.046336
 H        -0.639413         0.986202        -0.511543
 H        -0.667252        -0.674282        -0.736715
 H         1.466938         1.908696         0.731676
 H         1.734247         0.693138         2.137258
 H         4.321667         0.797237         0.422240
 H         3.915483        -1.752036         0.968490
 H         4.170296        -0.905231        -1.690519
 H         2.572976        -1.890098        -1.580705
 H         2.104723         1.069773        -2.692997
