19
Iteration:   426charge 0 multiplicity 1
 C        -0.230062         0.245490        -0.207321
 C         1.287352         0.027740         0.151585
 C         2.025232         0.975647         1.132322
 C         3.293539         0.388722         0.506478
 C         3.115949        -1.225225         0.377349
 C         3.199236        -1.212007        -1.072574
 C         2.500611         0.169691        -0.911759
 O         2.469540         1.314124        -1.795065
 O         1.717954        -1.281905         0.690561
 H        -0.817141        -0.043301         0.627921
 H        -0.505261         1.267436        -0.425714
 H        -0.377541        -0.343613        -1.026994
 H         2.030744         2.023411         0.832518
 H         1.816014         0.788394         2.221804
 H         4.178197         0.911930         0.734800
 H         3.676579        -2.008811         0.970251
 H         4.358162        -1.019822        -1.347947
 H         2.865220        -2.020276        -1.849174
 H         2.001878         1.023533        -2.580690
