19
Iteration:  4364
 C        -0.211983         0.016207        -0.018341
 C         1.263077        -0.048330         0.270352
 C         1.938351         0.958613         1.148622
 C         3.226743         0.514405         0.424811
 C         3.208713        -1.071216         0.423275
 C         3.160979        -1.117856        -1.133631
 C         2.507374         0.333376        -0.912828
 O         2.561394         1.248440        -1.911242
 O         1.707223        -1.335205         0.607647
 H        -0.631574         0.039808         1.100065
 H        -0.385152         1.072964        -0.522511
 H        -0.540089        -0.871145        -0.543594
 H         1.707770         2.000977         1.125212
 H         1.837859         0.606667         2.184857
 H         4.261512         0.855637         0.531468
 H         3.835379        -1.755688         0.883453
 H         4.117466        -1.030146        -1.704286
 H         2.724406        -1.866650        -1.731071
 H         2.186536         0.851506        -2.701760
