19
Iteration:  3757
 C        -0.154424        -0.010911        -0.122247
 C         1.287629        -0.014723         0.224303
 C         2.100480         1.063170         1.111135
 C         3.359395         0.469135         0.497911
 C         3.085460        -1.193375         0.399581
 C         3.178761        -1.053153        -1.098305
 C         2.478706         0.217447        -0.873921
 O         2.298156         1.211737        -1.814545
 O         1.752787        -1.260396         0.642483
 H        -0.795933        -0.108190         0.655473
 H        -0.339494         0.891648        -0.760659
 H        -0.350353        -0.758524        -0.992433
 H         1.769911         2.124151         0.854423
 H         1.937726         0.922728         2.281272
 H         4.355497         0.884019         0.236385
 H         3.602929        -1.995186         0.916359
 H         4.234354        -0.658542        -1.480282
 H         2.557138        -1.784372        -1.748880
 H         2.704900         1.063618        -2.667401
