19
Iteration:  4072charge 0 multiplicity 1
 C        -0.249014         0.076186        -0.040891
 C         1.285248        -0.082492         0.154371
 C         2.003271         1.014968         1.156415
 C         3.325390         0.464667         0.439810
 C         3.190676        -1.126065         0.440662
 C         3.311619        -1.131628        -1.108597
 C         2.496311         0.290147        -0.929660
 O         2.303243         1.224033        -1.892027
 O         1.661030        -1.321026         0.624099
 H        -0.825926        -0.133838         0.819044
 H        -0.356477         1.169502        -0.338333
 H        -0.454816        -0.805382        -0.799456
 H         1.682349         2.032258         0.828583
 H         2.034537         0.779010         2.261236
 H         4.373475         0.879916         0.433212
 H         3.841274        -1.608311         1.142015
 H         4.400265        -0.873042        -1.500155
 H         2.825372        -1.925192        -1.654361
 H         3.204732         1.497682        -2.061880
