19
Iteration:   438
 C        -0.161718         0.125270        -0.187987
 C         1.279099         0.064102         0.215717
 C         2.112154         0.965669         1.205580
 C         3.274354         0.369089         0.437017
 C         3.076382        -1.225319         0.460827
 C         3.254729        -1.149043        -1.104207
 C         2.571019         0.278825        -0.929271
 O         2.443615         1.302961        -1.858249
 O         1.563588        -1.275594         0.653179
 H        -0.873694        -0.148500         0.584771
 H        -0.302762         1.130475        -0.475155
 H        -0.450215        -0.469469        -0.985778
 H         1.968581         2.054788         1.035412
 H         1.998266         0.793040         2.304457
 H         4.280123         0.611436         0.486562
 H         3.560655        -1.991724         1.098943
 H         4.400496        -0.896261        -1.367433
 H         2.786050        -2.096525        -1.622679
 H         2.169198         0.971138        -2.754954
