19
Iteration:   617charge 0 multiplicity 1
 C        -0.142494         0.154323        -0.136291
 C         1.348676         0.030587         0.101424
 C         2.017245         1.029814         1.115270
 C         3.292415         0.344666         0.495548
 C         3.091544        -1.171726         0.413896
 C         3.181067        -1.115244        -1.140975
 C         2.580637         0.216248        -0.919043
 O         2.368450         1.214801        -1.796003
 O         1.628932        -1.282496         0.690809
 H        -0.755843        -0.166698         0.654936
 H        -0.521642         1.131591        -0.259877
 H        -0.386747        -0.408639        -1.059558
 H         1.820484         2.070776         0.757648
 H         1.842214         0.746424         2.154775
 H         4.333150         0.846554         0.595379
 H         3.640795        -1.974175         0.912619
 H         4.310176        -1.160236        -1.389332
 H         2.599701        -1.954243        -1.740194
 H         3.250355         1.620157        -1.907524
