19
Iteration:   313charge 0 multiplicity 1
 C        -0.146768         0.250345        -0.228115
 C         1.283012        -0.085738         0.130154
 C         2.019836         0.945872         1.130793
 C         3.325969         0.419689         0.459534
 C         3.122396        -1.105296         0.469653
 C         3.128009        -1.233671        -1.143769
 C         2.488774         0.180585        -0.895304
 O         2.506608         1.372186        -1.743845
 O         1.682659        -1.360393         0.708354
 H        -0.742993         0.222874         0.657766
 H        -0.198468         1.287057        -0.569377
 H        -0.631214        -0.339576        -1.042700
 H         1.911865         1.921155         0.587056
 H         1.757009         0.825972         2.165028
 H         4.393522         0.986907         0.655264
 H         3.706299        -1.782152         1.050365
 H         4.043744        -1.266405        -1.754452
 H         2.469089        -2.088654        -1.423900
 H         2.139868         1.115371        -2.630593
