19
Iteration:  2670charge 0 multiplicity 1
 C        -0.052860        -0.012396        -0.372325
 C         1.350356        -0.009990         0.168945
 C         2.056339         1.001581         1.151674
 C         3.330142         0.471030         0.476301
 C         3.054270        -1.221909         0.422137
 C         3.228669        -1.057469        -1.091802
 C         2.562898         0.295150        -0.819316
 O         2.210915         1.241785        -1.773469
 O         1.688573        -1.331719         0.673318
 H        -0.694113        -0.078310         0.414446
 H        -0.285916         1.009209        -1.007636
 H        -0.232700        -0.750004        -1.119877
 H         1.842667         2.057211         0.889435
 H         1.944221         0.986855         2.282102
 H         4.348154         0.755316         0.594571
 H         3.777041        -1.951545         0.864867
 H         4.282086        -0.874793        -1.283128
 H         2.903932        -1.760578        -1.829470
 H         1.885973         1.981300        -1.235425
