19
Iteration:  1667
 C        -0.004125        -0.025438        -0.418831
 C         1.311905         0.001451         0.108359
 C         1.990578         0.907390         1.295358
 C         3.289031         0.476864         0.545771
 C         3.093598        -1.114609         0.454707
 C         3.241962        -1.068717        -1.094453
 C         2.615381         0.357399        -0.825787
 O         2.220134         1.199056        -1.800298
 O         1.624600        -1.267420         0.626693
 H        -0.799463        -0.312058         0.273099
 H        -0.376873         0.938317        -0.980717
 H        -0.009731        -0.692534        -1.251232
 H         1.825997         2.042117         1.245676
 H         1.832724         0.596609         2.325554
 H         4.299743         0.901366         0.697522
 H         3.619710        -1.802729         1.147922
 H         4.409405        -1.117984        -1.503544
 H         2.615957        -1.863452        -1.660601
 H         3.121530         1.528222        -2.101086
