19
Iteration:  4391
 C        -0.295494         0.001095         0.003421
 C         1.266824         0.021640         0.143745
 C         2.034266         0.888360         1.124531
 C         3.269500         0.474196         0.425056
 C         3.105201        -1.139133         0.459957
 C         3.233966        -1.174241        -1.083906
 C         2.501307         0.330311        -0.967287
 O         2.501405         1.292304        -1.925144
 O         1.740147        -1.237885         0.659832
 H        -0.601444        -0.174497         0.988149
 H        -0.599819         0.883356        -0.477313
 H        -0.567344        -0.863373        -0.698075
 H         1.892530         2.010713         1.129289
 H         1.918651         0.496632         2.176641
 H         4.286528         0.788115         0.718657
 H         3.774021        -1.791721         1.181092
 H         4.244044        -0.802941        -1.297426
 H         3.123889        -1.865631        -1.968687
 H         1.806747         1.162514        -2.585342
