19
Iteration:  3352charge 0 multiplicity 1
 C        -0.234298         0.051396        -0.087847
 C         1.285495        -0.005110         0.189343
 C         2.064148         0.993473         1.116610
 C         3.258287         0.491992         0.429648
 C         3.227178        -1.143178         0.439576
 C         3.184496        -1.110082        -1.051178
 C         2.485199         0.259680        -0.963145
 O         2.372747         1.304279        -1.793070
 O         1.697055        -1.392398         0.590680
 H        -0.871467         0.123392         0.677927
 H        -0.395750         0.845946        -0.772973
 H        -0.461633        -0.839828        -0.839877
 H         1.834073         2.133000         0.919753
 H         1.972704         0.865411         2.237891
 H         4.249412         0.873869         0.511184
 H         3.715208        -1.969842         1.038887
 H         4.193944        -1.121306        -1.562699
 H         2.680240        -2.000287        -1.444823
 H         3.241110         1.575457        -2.209711
