19
Iteration:  1699
 C        -0.120965         0.083190        -0.354467
 C         1.292834        -0.085808         0.015471
 C         1.879821         0.964366         1.061195
 C         3.261694         0.418195         0.548025
 C         3.183627        -1.136293         0.443008
 C         3.278096        -1.039453        -1.080022
 C         2.475592         0.251940        -0.826878
 O         2.305124         1.312346        -1.705740
 O         1.743484        -1.403248         0.740360
 H        -0.971750        -0.250169         0.282629
 H        -0.330989         1.266112        -0.526334
 H        -0.376209        -0.277835        -1.276717
 H         1.978275         1.920237         0.486379
 H         1.787759         1.135514         2.115039
 H         4.271638         0.823753         0.647906
 H         3.849048        -1.732531         1.101425
 H         4.477938        -0.940949        -1.282280
 H         2.854552        -1.991430        -1.560408
 H         3.190016         1.554815        -2.016486
