19
Iteration:  1808
 C        -0.145333         0.145535        -0.423169
 C         1.317546        -0.077017         0.078142
 C         1.924655         0.939795         1.043341
 C         3.263139         0.443405         0.517585
 C         3.159027        -1.122564         0.434833
 C         3.319804        -1.118490        -1.036696
 C         2.535861         0.216829        -0.878118
 O         2.232574         1.313903        -1.588513
 O         1.758436        -1.346217         0.662838
 H        -0.757437         0.079162         0.587048
 H        -0.326177         1.167215        -1.030997
 H        -0.325391        -0.646454        -1.103508
 H         1.862244         2.018088         0.729984
 H         1.704761         0.844586         2.090859
 H         4.295608         0.842067         0.646793
 H         3.628588        -1.835952         1.132950
 H         4.339427        -1.105252        -1.298030
 H         2.839583        -2.026429        -1.309819
 H         2.905749         1.581809        -2.265345
