19
Iteration:  1437charge 0 multiplicity 1
 C        -0.207480         0.016851        -0.255963
 C         1.294026         0.053041         0.098163
 C         1.878898         0.870083         1.230189
 C         3.185548         0.489711         0.494440
 C         3.187248        -1.048979         0.436620
 C         3.286527        -1.126351        -1.055366
 C         2.525626         0.317862        -0.830773
 O         2.472010         1.250537        -1.869632
 O         1.711952        -1.351024         0.594868
 H        -0.679434         0.219123         0.722861
 H        -0.403836         0.999286        -0.880203
 H        -0.458671        -0.890600        -0.743369
 H         1.566582         1.893368         1.224734
 H         1.723873         0.311368         2.194991
 H         4.111746         0.944548         0.653002
 H         3.680015        -1.723763         1.138827
 H         4.163013        -1.031823        -1.525044
 H         2.636335        -1.800534        -1.496473
 H         3.437382         1.355447        -2.112882
