19
Iteration:  1609charge 0 multiplicity 1
 C        -0.188822         0.087888        -0.256574
 C         1.314613        -0.109806         0.049316
 C         1.895935         1.012241         1.076217
 C         3.209860         0.495649         0.505544
 C         3.113102        -1.152712         0.529537
 C         3.289746        -1.044570        -1.089838
 C         2.536492         0.256902        -0.878100
 O         2.414362         1.303037        -1.700061
 O         1.747834        -1.417367         0.619682
 H        -0.745315         0.067001         0.777512
 H        -0.183273         1.033923        -0.759581
 H        -0.463746        -0.757879        -0.798393
 H         1.504710         1.945526         0.797809
 H         1.696130         0.768867         2.156854
 H         4.132032         0.993710         0.715109
 H         3.666792        -1.902197         1.081405
 H         4.391931        -0.771723        -1.539674
 H         2.833820        -1.799511        -1.785572
 H         3.044751         1.235730        -2.395257
