19
Iteration:  2705charge 0 multiplicity 1
 C        -0.263980        -0.003817        -0.186298
 C         1.262231         0.016639         0.104727
 C         1.908688         0.953845         1.186418
 C         3.267763         0.441572         0.499142
 C         3.194097        -1.187287         0.379307
 C         3.237316        -1.145483        -1.117804
 C         2.554146         0.290532        -0.854255
 O         2.492677         1.311427        -1.822678
 O         1.803825        -1.285988         0.635130
 H        -0.751312         0.023227         0.807663
 H        -0.511771         1.064496        -0.590343
 H        -0.721356        -0.872901        -0.698549
 H         1.635979         1.993693         0.878173
 H         1.675615         0.692999         2.227449
 H         4.212481         0.989675         0.636892
 H         3.799130        -1.883244         0.916356
 H         4.234368        -0.923080        -1.441514
 H         2.737453        -1.815576        -1.695843
 H         1.562443         1.465564        -1.984249
