19
Iteration:  4626charge 0 multiplicity 1
 C        -0.071496         0.064085        -0.380764
 C         1.307797        -0.045256         0.153051
 C         2.150510         1.018483         1.189394
 C         3.229096         0.448069         0.342431
 C         3.198443        -1.080386         0.411838
 C         3.186658        -1.116560        -1.063916
 C         2.454979         0.183354        -0.870606
 O         2.285674         1.318798        -1.694607
 O         1.704761        -1.336263         0.787703
 H        -0.885299        -0.250054         0.358371
 H        -0.384795         1.074438        -0.849647
 H        -0.287011        -0.573694        -1.185510
 H         2.019938         1.995147         0.829845
 H         2.251203         0.862338         2.277542
 H         4.258201         0.896760         0.222072
 H         3.802329        -1.808234         1.014861
 H         4.177017        -1.033556        -1.647088
 H         2.761611        -2.043868        -1.476935
 H         1.494236         1.036029        -2.203837
