19
Iteration:  3658
 C        -0.096368         0.096239        -0.201184
 C         1.364347         0.042772         0.114904
 C         2.054114         0.970509         1.088437
 C         3.362086         0.551533         0.473402
 C         3.171421        -1.172935         0.442802
 C         3.235313        -1.077990        -1.118120
 C         2.602630         0.247061        -0.881859
 O         2.238697         1.215942        -1.878893
 O         1.631755        -1.365804         0.751571
 H        -0.594247        -0.231997         0.657579
 H        -0.480354         1.091334        -0.533061
 H        -0.395863        -0.705644        -1.027151
 H         1.651938         2.053220         1.117239
 H         1.846916         0.599395         2.163520
 H         4.334398         0.927232         0.661028
 H         3.641999        -2.002219         0.966817
 H         4.341779        -1.093932        -1.400840
 H         2.650294        -1.895145        -1.595868
 H         1.284393         1.305397        -1.802770
