19
Iteration:  3065
 C        -0.252890        -0.035933         0.007959
 C         1.290107         0.031452         0.119813
 C         1.997641         0.954710         1.144323
 C         3.317867         0.426163         0.563087
 C         3.093682        -1.126844         0.415358
 C         3.182596        -1.063093        -1.136697
 C         2.552762         0.268473        -0.898498
 O         2.483206         1.283478        -1.925113
 O         1.709406        -1.282742         0.611030
 H        -0.762430        -0.113937         1.022353
 H        -0.633489         0.983960        -0.382228
 H        -0.591496        -0.877904        -0.699856
 H         1.761516         1.968641         0.871258
 H         1.648393         0.620777         2.091396
 H         4.209975         1.125204         0.771945
 H         3.703650        -1.880929         0.924253
 H         4.189982        -0.972292        -1.650616
 H         2.567906        -1.784275        -1.754922
 H         3.171857         0.998074        -2.561175
