19
Iteration:  3834
 C        -0.140387         0.086872        -0.148619
 C         1.273558        -0.019114         0.220697
 C         2.054938         1.032772         1.135581
 C         3.313354         0.391962         0.426594
 C         3.147313        -1.198596         0.451058
 C         3.208009        -1.118761        -1.141548
 C         2.468610         0.250309        -0.918001
 O         2.223307         1.254040        -1.889043
 O         1.777670        -1.303524         0.731408
 H        -0.904721         0.006657         0.549864
 H        -0.288042         1.119878        -0.580327
 H        -0.410508        -0.597213        -1.042086
 H         1.876714         2.065511         0.785683
 H         1.968455         0.864619         2.270691
 H         4.329804         0.816753         0.615112
 H         3.817967        -1.849215         1.006225
 H         4.299126        -0.777501        -1.290949
 H         2.829689        -2.037366        -1.743031
 H         3.077765         1.603693        -2.163051
