19
Iteration:  3336charge 0 multiplicity 1
 C        -0.146964         0.061179        -0.256880
 C         1.293173         0.002869         0.201569
 C         2.103936         0.984731         1.179759
 C         3.325853         0.417713         0.420832
 C         3.080494        -1.137177         0.416783
 C         3.254200        -1.152003        -1.134244
 C         2.530827         0.226784        -0.837846
 O         2.218210         1.260211        -1.827544
 O         1.706922        -1.294926         0.657601
 H        -0.802209        -0.030972         0.752980
 H        -0.337510         1.006452        -0.867575
 H        -0.464386        -0.782971        -0.797339
 H         1.907400         2.003369         0.933842
 H         2.075567         0.763180         2.260094
 H         4.372791         0.828333         0.322600
 H         3.682107        -1.624229         1.165025
 H         4.263886        -0.885787        -1.380245
 H         2.745711        -1.920864        -1.752021
 H         2.973054         1.879242        -1.607408
