19
Iteration:  1919
 C        -0.208981        -0.009777        -0.154331
 C         1.236387        -0.009331         0.094121
 C         1.958952         1.055935         1.036784
 C         3.167445         0.368298         0.617803
 C         3.117897        -1.153239         0.392496
 C         3.390213        -1.031835        -1.118522
 C         2.643546         0.227357        -0.923014
 O         2.391925         1.291072        -1.716562
 O         1.666670        -1.327241         0.614701
 H        -0.808953        -0.364126         0.817660
 H        -0.579918         1.035940        -0.351885
 H        -0.523995        -0.802578        -1.032337
 H         1.991664         2.105401         0.680219
 H         1.609810         1.147626         2.067639
 H         4.245588         0.675546         0.854968
 H         3.714359        -1.698613         1.060868
 H         4.423968        -0.853524        -1.153764
 H         3.127661        -1.747445        -1.845938
 H         2.719049         1.244496        -2.616264
