19
Iteration:   482
 C        -0.191118         0.175952        -0.206835
 C         1.300185         0.036094         0.207408
 C         1.944495         0.987302         1.230059
 C         3.322256         0.302761         0.572918
 C         3.169061        -1.188490         0.360260
 C         3.114556        -1.167657        -1.194860
 C         2.506061         0.245686        -0.841199
 O         2.500468         1.308175        -1.894903
 O         1.742199        -1.225568         0.717136
 H        -0.877601         0.066067         0.628432
 H        -0.293829         1.047651        -0.742359
 H        -0.451178        -0.595406        -0.846167
 H         1.915242         2.043987         0.900398
 H         1.615461         0.667073         2.251957
 H         4.269065         0.687063         0.509692
 H         3.512731        -1.989334         1.018376
 H         4.151739        -1.301012        -1.860830
 H         2.243585        -1.827757        -1.643893
 H         2.579963         0.723477        -2.703219
