19
Iteration:  1775charge 0 multiplicity 1
 C        -0.116958        -0.014176        -0.313027
 C         1.289402        -0.022639         0.187641
 C         1.904290         0.932512         1.255013
 C         3.186210         0.482839         0.581860
 C         3.111725        -1.157079         0.368358
 C         3.280173        -0.992820        -1.114408
 C         2.562936         0.313872        -0.850522
 O         2.447869         1.250580        -1.900275
 O         1.689048        -1.324715         0.670866
 H        -1.021342        -0.128722         0.500789
 H        -0.406064         1.026751        -0.886821
 H        -0.331129        -0.921926        -0.777388
 H         1.668231         2.033300         1.065477
 H         1.709245         0.681799         2.286114
 H         4.181514         0.922043         0.757743
 H         3.626856        -1.992969         0.929851
 H         4.312419        -1.050122        -1.496375
 H         2.677980        -1.766079        -1.580645
 H         3.303112         1.408074        -2.313679
