19
Iteration:   242
 C        -0.114932         0.085690        -0.208504
 C         1.379008         0.113916         0.119406
 C         2.000382         0.953459         1.272406
 C         3.360307         0.478660         0.557151
 C         3.049079        -1.265677         0.357233
 C         3.127028        -1.186312        -1.141399
 C         2.544456         0.299245        -0.810052
 O         2.529823         1.146785        -1.914327
 O         1.628883        -1.182705         0.637155
 H        -0.761198        -0.096676         0.766902
 H        -0.551684         1.061103        -0.601387
 H        -0.447164        -0.676614        -0.938628
 H         1.831211         1.985205         1.018130
 H         1.784299         0.586930         2.302498
 H         4.283354         0.925702         0.637875
 H         3.552784        -2.054396         1.022789
 H         4.030772        -1.086234        -1.652446
 H         2.502337        -1.835592        -1.689053
 H         1.630310         1.553115        -1.996729
