19
Iteration:  1742charge 0 multiplicity 1
 C        -0.173953        -0.101147        -0.228776
 C         1.270249         0.050433         0.045868
 C         1.997364         0.924885         1.216441
 C         3.220732         0.385292         0.622546
 C         3.116347        -1.132254         0.496811
 C         3.346902        -1.003346        -1.017392
 C         2.542643         0.308200        -0.878812
 O         2.424148         1.271391        -1.908844
 O         1.637083        -1.241955         0.545091
 H        -0.604334        -0.360777         0.829436
 H        -0.813628         0.833752        -0.617340
 H        -0.418450        -0.833361        -0.911699
 H         1.823789         1.990658         1.009301
 H         1.622171         0.572146         2.160495
 H         4.192654         0.844569         0.681853
 H         3.605702        -1.967219         1.042266
 H         4.264297        -0.839061        -1.611303
 H         2.702602        -1.755370        -1.468826
 H         3.325918         1.398885        -2.185961
