19
Iteration:  2526charge 0 multiplicity 1
 C        -0.143649        -0.033053        -0.282420
 C         1.277823         0.018079         0.164061
 C         1.941431         0.822081         1.167055
 C         3.284137         0.494918         0.544134
 C         3.207549        -1.081163         0.369794
 C         3.137268        -1.095991        -1.113469
 C         2.417493         0.265369        -0.837961
 O         2.527848         1.328393        -1.859734
 O         1.728010        -1.288288         0.726531
 H        -0.728158        -0.115947         0.629678
 H        -0.224246         0.982151        -0.952849
 H        -0.340080        -0.933537        -0.933298
 H         1.787070         1.913182         0.976580
 H         1.668543         0.518139         2.216355
 H         4.267515         1.056815         0.652699
 H         3.902590        -1.753451         0.976008
 H         4.096649        -0.827142        -1.456316
 H         2.853376        -1.967356        -1.576632
 H         1.690215         1.340374        -2.338329
