19
Iteration:  3542
 C        -0.223462         0.008145         0.015788
 C         1.272977        -0.045065         0.194060
 C         1.959567         1.037943         1.068295
 C         3.222325         0.555150         0.490444
 C         3.158509        -1.096131         0.416061
 C         3.196334        -1.055732        -1.263330
 C         2.533267         0.203191        -0.882287
 O         2.557980         1.228824        -1.779267
 O         1.717847        -1.380046         0.642944
 H        -0.717224        -0.077833         0.989535
 H        -0.515687         0.981984        -0.428617
 H        -0.609274        -0.702663        -0.571369
 H         1.560000         1.901292         0.645334
 H         1.715027         1.053390         2.116931
 H         4.258597         1.015947         0.438166
 H         3.847146        -1.786065         0.913030
 H         4.165389        -0.924370        -1.682782
 H         2.583874        -1.794397        -1.797802
 H         2.398861         0.994050        -2.710691
