19
Iteration:  2409charge 0 multiplicity 1
 C        -0.221716        -0.138694        -0.093154
 C         1.256362         0.084740         0.085469
 C         1.907964         0.961751         1.197477
 C         3.222013         0.485347         0.617135
 C         3.105180        -1.110945         0.378435
 C         3.296216        -1.068496        -1.086246
 C         2.570008         0.329328        -0.935085
 O         2.599301         1.250421        -1.878561
 O         1.663742        -1.270366         0.562821
 H        -0.584499        -0.363299         1.048132
 H        -0.898884         0.759197        -0.362187
 H        -0.475089        -0.978003        -0.648238
 H         1.745659         2.015333         1.120383
 H         1.700879         0.627592         2.244983
 H         4.221427         0.841017         0.839312
 H         3.804061        -1.905963         0.837473
 H         4.404449        -0.893851        -1.434351
 H         2.839155        -1.868441        -1.762233
 H         1.935769         1.112171        -2.613126
