19
Iteration:  4721
 C        -0.260651         0.014695        -0.005195
 C         1.264523        -0.046907         0.142975
 C         1.972267         0.984826         1.078431
 C         3.242270         0.467169         0.415610
 C         3.146798        -1.129990         0.461445
 C         3.170799        -1.092136        -1.155652
 C         2.573202         0.238974        -0.953006
 O         2.539898         1.298406        -1.848499
 O         1.780036        -1.273822         0.741028
 H        -0.717168        -0.167977         0.990358
 H        -0.662761         0.955694        -0.480916
 H        -0.657413        -0.763103        -0.714166
 H         1.396620         1.923366         0.819394
 H         1.761465         0.641635         2.156932
 H         4.318756         0.804851         0.448334
 H         3.840614        -1.786765         0.964169
 H         4.121327        -0.907986        -1.724618
 H         2.617106        -1.871705        -1.663970
 H         2.090894         1.078796        -2.693258
