19
Iteration:  2074charge 0 multiplicity 1
 C        -0.265664         0.018485        -0.146813
 C         1.234720        -0.091956         0.170978
 C         1.926444         0.952840         1.232967
 C         3.159825         0.503050         0.530650
 C         3.168931        -1.100913         0.393422
 C         3.231007        -1.066775        -1.144567
 C         2.555916         0.350278        -0.887480
 O         2.653800         1.353646        -1.934692
 O         1.697329        -1.391445         0.684775
 H        -0.751593        -0.410334         0.794198
 H        -0.572151         0.951630        -0.445226
 H        -0.397704        -0.796651        -1.013509
 H         1.636890         1.939221         0.917843
 H         1.820747         0.661400         2.305354
 H         4.084862         1.070283         0.586031
 H         3.646292        -1.896068         1.032577
 H         4.211878        -1.120955        -1.477770
 H         2.673986        -1.876445        -1.540721
 H         2.429183         0.845160        -2.756215
