19
Iteration:  1988
 C        -0.025137         0.080740        -0.428624
 C         1.328871        -0.027221         0.145357
 C         1.909528         0.956503         1.283150
 C         3.233753         0.463757         0.514180
 C         3.146873        -1.139158         0.391869
 C         3.077898        -1.034713        -1.085552
 C         2.480870         0.283620        -0.810526
 O         2.338813         1.176978        -1.861256
 O         1.839180        -1.342775         0.725454
 H        -0.903863         0.017041         0.124809
 H        -0.085310         1.004858        -0.974070
 H        -0.349093        -0.838265        -1.245165
 H         1.708736         1.991675         1.220591
 H         1.760082         0.586482         2.309787
 H         4.155760         0.979637         0.699088
 H         3.864463        -1.858863         0.883863
 H         4.089063        -0.706942        -1.423280
 H         2.641519        -1.861538        -1.666359
 H         2.963405         1.864257        -1.678146
