19
Iteration:  2848
 C        -0.141512        -0.024106        -0.234596
 C         1.356070         0.092621         0.153301
 C         1.970278         0.886233         1.268728
 C         3.328059         0.372659         0.601535
 C         3.118701        -1.143389         0.406077
 C         3.174065        -1.047112        -1.177265
 C         2.598906         0.330367        -0.885335
 O         2.344124         1.229293        -1.982570
 O         1.736600        -1.246848         0.696925
 H        -0.736552        -0.097242         0.618038
 H        -0.515296         0.839709        -0.716762
 H        -0.212334        -1.012116        -0.816228
 H         1.764180         1.988793         1.001868
 H         1.771350         0.577293         2.285051
 H         4.384500         0.812356         0.814086
 H         3.584432        -2.024654         0.956087
 H         4.196597        -1.051471        -1.509906
 H         2.502966        -1.658210        -1.752534
 H         1.647103         1.836102        -1.710864
