19
Iteration:  2933charge 0 multiplicity 1
 C        -0.123105        -0.050361        -0.127636
 C         1.331119         0.000612         0.196570
 C         1.961053         0.951772         1.176998
 C         3.280664         0.445402         0.493183
 C         3.117962        -1.132550         0.385550
 C         3.155943        -1.036847        -1.113773
 C         2.562318         0.324949        -0.848628
 O         2.411835         1.227901        -1.946610
 O         1.688605        -1.318801         0.637739
 H        -0.874042        -0.403189         0.669443
 H        -0.483047         1.007071        -0.536483
 H        -0.313429        -0.602183        -1.079523
 H         1.902254         2.023726         1.167349
 H         1.908703         0.665466         2.206046
 H         4.273771         0.939631         0.710337
 H         3.764242        -1.914660         0.860138
 H         4.258765        -1.118959        -1.483922
 H         2.531025        -1.807180        -1.616441
 H         2.519187         2.159620        -1.714740
