19
Iteration:   478
 C        -0.189155         0.129000        -0.192567
 C         1.295009         0.076366         0.190780
 C         1.946511         0.997954         1.248549
 C         3.338397         0.300019         0.581217
 C         3.137733        -1.234510         0.340282
 C         3.131063        -1.140821        -1.172879
 C         2.527286         0.256793        -0.837101
 O         2.494012         1.282152        -1.911445
 O         1.710184        -1.205058         0.691591
 H        -0.835617         0.105656         0.693159
 H        -0.299286         1.152780        -0.752810
 H        -0.374317        -0.706974        -0.929798
 H         1.931085         2.032571         0.986092
 H         1.762418         0.623023         2.260457
 H         4.341851         0.857984         0.566652
 H         3.637632        -2.060687         0.957342
 H         3.934862        -1.224573        -1.800081
 H         2.390488        -1.792767        -1.498792
 H         2.532357         0.703882        -2.665593
