19
Iteration:  2449charge 0 multiplicity 1
 C        -0.233630         0.056274        -0.297737
 C         1.278964        -0.111169         0.175273
 C         1.950391         0.940185         1.150977
 C         3.241059         0.538029         0.437737
 C         3.177813        -1.099691         0.407486
 C         3.222417        -1.076064        -1.095480
 C         2.567919         0.243237        -0.900575
 O         2.472085         1.331934        -1.760697
 O         1.742789        -1.376757         0.727090
 H        -0.892104        -0.374532         0.479570
 H        -0.440918         1.171601        -0.543097
 H        -0.450065        -0.513242        -1.255207
 H         1.565959         1.987311         0.899971
 H         1.931388         0.639954         2.220001
 H         4.243780         1.025258         0.702976
 H         3.826802        -1.784958         0.971454
 H         4.241279        -0.967605        -1.326821
 H         2.819518        -1.924109        -1.549682
 H         1.790789         1.103362        -2.395254
