19
Iteration:  3371
 C        -0.179500         0.034935        -0.035463
 C         1.275254        -0.066789         0.115226
 C         1.905727         0.939291         1.092870
 C         3.253121         0.404523         0.504677
 C         3.113015        -1.107248         0.411160
 C         3.175606        -1.104116        -1.194865
 C         2.508633         0.285876        -0.824748
 O         2.496040         1.302767        -1.865370
 O         1.778672        -1.272658         0.667756
 H        -0.503067         0.091917         1.089070
 H        -0.573408         0.954871        -0.427751
 H        -0.552997        -0.942202        -0.529552
 H         1.820999         2.082601         0.829519
 H         1.482318         0.795658         2.157188
 H         4.196637         0.930290         0.611230
 H         3.775372        -1.765378         0.878763
 H         4.172177        -1.028177        -1.644850
 H         2.580275        -1.848898        -1.798970
 H         3.112372         1.146106        -2.635430
