19
Iteration:  3890
 C        -0.188269        -0.006952        -0.012786
 C         1.247263        -0.020573         0.157537
 C         2.019695         1.010157         1.142891
 C         3.293549         0.457342         0.468986
 C         3.187356        -1.130287         0.407876
 C         3.118006        -1.072842        -1.133234
 C         2.491452         0.311377        -0.880366
 O         2.469516         1.293267        -1.907403
 O         1.697482        -1.337699         0.652551
 H        -0.750160        -0.208860         0.889130
 H        -0.583793         0.901077        -0.507904
 H        -0.395786        -0.937157        -0.568000
 H         1.758420         1.995304         0.700944
 H         1.836407         1.215562         2.312333
 H         4.260937         1.001039         0.476418
 H         3.783488        -1.873334         0.946795
 H         4.051919        -1.222122        -1.767721
 H         2.746643        -2.132629        -1.473094
 H         3.115860         0.933720        -2.548822
