19
Iteration:  2851
 C        -0.145133        -0.046229        -0.215147
 C         1.355027         0.072573         0.146255
 C         1.983777         0.904702         1.268142
 C         3.335554         0.373805         0.621483
 C         3.080593        -1.151530         0.403444
 C         3.206303        -1.017160        -1.170645
 C         2.603347         0.320460        -0.905061
 O         2.355609         1.236855        -1.994620
 O         1.725333        -1.243578         0.680942
 H        -0.860065        -0.086884         0.798954
 H        -0.512410         0.825586        -0.715445
 H        -0.317683        -0.994379        -0.853404
 H         1.818094         1.969242         1.011753
 H         1.753285         0.596676         2.311541
 H         4.356843         0.756462         0.762499
 H         3.664235        -1.931368         0.952735
 H         4.190786        -1.122323        -1.521666
 H         2.480837        -1.692329        -1.655414
 H         1.632017         1.844862        -1.668697
