19
Iteration:   755charge 0 multiplicity 1
 C        -0.223790         0.085386        -0.222469
 C         1.230174        -0.052221         0.128119
 C         2.074461         0.936669         1.060549
 C         3.297520         0.390046         0.470164
 C         3.082884        -1.158260         0.496344
 C         3.231537        -1.110421        -1.081676
 C         2.572422         0.243844        -0.900694
 O         2.466841         1.372173        -1.779298
 O         1.688135        -1.313173         0.670388
 H        -0.951370        -0.036396         0.683436
 H        -0.313534         1.131096        -0.519130
 H        -0.314713        -0.604352        -1.102596
 H         1.939584         2.003767         0.808261
 H         1.859614         0.754611         2.089164
 H         4.291739         0.904644         0.678556
 H         3.571966        -1.785871         1.270037
 H         4.263325        -1.125647        -1.253904
 H         2.686779        -1.712496        -1.675469
 H         1.835575         1.041680        -2.444872
