19
Iteration:  3131charge 0 multiplicity 1
 C        -0.130867         0.115406        -0.406350
 C         1.320014         0.012671         0.171854
 C         2.138643         0.985638         1.198155
 C         3.391789         0.419963         0.557145
 C         3.128729        -1.189847         0.392831
 C         3.202233        -1.145505        -1.139794
 C         2.533173         0.251137        -0.868013
 O         2.120318         1.193461        -1.811780
 O         1.732270        -1.260518         0.732911
 H        -0.879650        -0.206437         0.339737
 H        -0.377317         1.171940        -0.652515
 H        -0.270360        -0.701777        -1.241611
 H         2.286026         2.081946         1.041366
 H         1.853088         0.835767         2.264042
 H         4.487402         0.778677         0.507006
 H         3.690239        -1.862746         0.994968
 H         4.239354        -1.056444        -1.528214
 H         2.553766        -1.899072        -1.713767
 H         2.290988         2.066707        -1.424011
