19
Iteration:  1408charge 0 multiplicity 1
 C        -0.179356         0.014586        -0.278262
 C         1.265460        -0.089110         0.181944
 C         1.916642         0.929090         1.132764
 C         3.222183         0.425403         0.537413
 C         3.164502        -1.097693         0.444102
 C         3.265301        -1.037285        -1.113873
 C         2.542215         0.302123        -0.842171
 O         2.457758         1.310270        -1.864855
 O         1.671947        -1.353787         0.712304
 H        -0.817435         0.023371         0.553815
 H        -0.310393         1.000607        -0.737399
 H        -0.460529        -0.773772        -1.098050
 H         1.610287         1.931787         0.731355
 H         1.708555         0.843368         2.204425
 H         4.253391         0.840674         0.697913
 H         3.677806        -1.806216         1.083767
 H         4.343321        -0.805247        -1.638945
 H         2.703313        -1.802735        -1.765292
 H         3.375187         1.411029        -2.134990
