19
Iteration:  3954charge 0 multiplicity 1
 C        -0.065092         0.105844        -0.290996
 C         1.356133         0.023274         0.160753
 C         2.114190         1.036623         1.184382
 C         3.413510         0.455937         0.583920
 C         3.206846        -1.182917         0.494384
 C         3.214874        -1.095325        -1.143609
 C         2.487259         0.221514        -0.874145
 O         2.028265         1.151964        -1.815376
 O         1.676188        -1.325985         0.598175
 H        -0.795272        -0.017820         0.479415
 H        -0.222913         1.215503        -0.539864
 H        -0.215886        -0.731043        -1.195007
 H         2.023380         1.920595         0.626361
 H         2.288253         1.073485         2.280375
 H         4.364366         1.045461         0.613330
 H         3.562467        -1.891460         1.234113
 H         4.254504        -0.973046        -1.517838
 H         2.522253        -1.872006        -1.513368
 H         2.727792         1.760603        -2.173545
