19
Iteration:  3639charge 0 multiplicity 1
 C        -0.037498         0.117795        -0.341946
 C         1.331029        -0.068941         0.188967
 C         2.069987         0.918876         1.214888
 C         3.282547         0.479042         0.398063
 C         3.123618        -1.116184         0.458597
 C         3.207507        -1.138191        -1.128970
 C         2.537361         0.231816        -0.870842
 O         2.209371         1.217706        -1.839331
 O         1.774404        -1.279441         0.755602
 H        -0.943068        -0.002646         0.320171
 H        -0.127695         1.215106        -0.736598
 H        -0.364377        -0.413354        -1.313137
 H         1.799185         1.966652         1.070629
 H         2.137060         0.753472         2.336387
 H         4.310256         0.940805         0.449678
 H         3.753175        -1.601515         1.197865
 H         4.213076        -0.983958        -1.439533
 H         2.578002        -1.827416        -1.714194
 H         1.259683         1.377794        -1.661192
