19
Iteration:  2099charge 0 multiplicity 1
 C        -0.196048        -0.041007        -0.158288
 C         1.280499         0.014752         0.122800
 C         1.969483         0.896443         1.199269
 C         3.262567         0.447660         0.525120
 C         3.085804        -1.088769         0.402397
 C         3.185655        -1.037198        -1.094766
 C         2.484656         0.315915        -0.870660
 O         2.482209         1.231535        -1.870008
 O         1.744011        -1.253764         0.612325
 H        -0.676114        -0.363678         0.698056
 H        -0.462173         1.011506        -0.535370
 H        -0.360115        -0.845880        -1.069372
 H         1.744773         1.926128         1.044470
 H         1.661450         0.412601         2.099092
 H         4.182733         1.003939         0.637702
 H         3.559731        -1.789830         1.149857
 H         4.258180        -0.977808        -1.301734
 H         2.700558        -1.817845        -1.680773
 H         3.423991         1.242750        -2.238620
