19
Iteration:  1134
 C        -0.140582         0.028283        -0.286775
 C         1.250653        -0.041577         0.101153
 C         1.913363         0.885072         1.231496
 C         3.227861         0.445584         0.499731
 C         3.093052        -1.126296         0.465195
 C         3.318739        -1.136618        -1.066569
 C         2.592744         0.326948        -0.899514
 O         2.384628         1.325476        -1.892207
 O         1.702756        -1.284979         0.673386
 H        -0.938832        -0.135491         0.488421
 H        -0.409768         1.153601        -0.560115
 H        -0.478141        -0.658314        -1.108391
 H         1.704311         1.912066         1.093711
 H         1.889505         0.475042         2.261200
 H         4.132578         0.861340         0.751301
 H         3.674885        -1.693959         1.224642
 H         4.348390        -1.119458        -1.234527
 H         2.885634        -1.977948        -1.492554
 H         3.245059         1.495515        -2.270193
