19
Iteration:  2305
 C        -0.039433        -0.062257        -0.388417
 C         1.341464         0.008087         0.200569
 C         2.037740         0.969260         1.294462
 C         3.341174         0.463201         0.545490
 C         3.095584        -1.193159         0.430955
 C         3.284849        -1.008422        -1.143632
 C         2.501299         0.300944        -0.850672
 O         2.323110         1.268804        -1.823267
 O         1.577673        -1.250926         0.642754
 H        -0.728192        -0.336441         0.332488
 H        -0.367967         0.856066        -0.801470
 H         0.020085        -0.864959        -1.247637
 H         1.972591         2.094527         1.163470
 H         1.684365         0.672498         2.318496
 H         4.405137         0.737244         0.571442
 H         3.651724        -1.880190         1.087425
 H         4.272962        -0.857208        -1.491306
 H         2.928851        -1.904306        -1.641679
 H         1.519627         1.007193        -2.270586
