19
Iteration:   691
 C        -0.077167         0.169011        -0.281388
 C         1.316078        -0.010278         0.204519
 C         1.985744         0.926213         1.208214
 C         3.291773         0.431400         0.491537
 C         3.118160        -1.150544         0.414432
 C         3.098071        -1.093354        -1.071924
 C         2.506550         0.279539        -0.858251
 O         2.469894         1.246349        -1.976689
 O         1.690251        -1.392303         0.726876
 H        -0.913454         0.325716         0.512530
 H        -0.192085         1.027131        -0.925859
 H        -0.425257        -0.723657        -0.886478
 H         1.936997         2.115844         1.086154
 H         1.756672         0.548767         2.244147
 H         4.375758         0.784769         0.581030
 H         3.860683        -1.776086         0.928410
 H         4.167482        -1.266904        -1.488949
 H         2.395525        -1.865504        -1.558744
 H         2.134388         2.069147        -1.590648
