19
Iteration:  4583
 C        -0.138670        -0.047390        -0.176940
 C         1.334140         0.018363         0.144014
 C         1.986298         0.995056         1.123798
 C         3.314336         0.384730         0.541544
 C         3.141470        -1.154065         0.369656
 C         3.121470        -1.014446        -1.132669
 C         2.513610         0.328422        -0.888623
 O         2.413036         1.230683        -1.871610
 O         1.736298        -1.261425         0.733205
 H        -0.281349        -0.247379         0.951579
 H        -0.588540         0.982276        -0.458785
 H        -0.481968        -0.785265        -0.835512
 H         1.822545         2.035428         0.967559
 H         1.730230         0.681345         2.165930
 H         4.334140         0.760093         0.839979
 H         3.882033        -1.847689         0.918176
 H         4.219139        -1.100876        -1.574010
 H         2.421770        -1.695498        -1.720574
 H         1.811787         1.120312        -2.615457
