19
Iteration:  1260
 C        -0.218756         0.016422        -0.256313
 C         1.262711        -0.060895         0.072113
 C         1.934449         0.954230         1.062501
 C         3.237252         0.384764         0.618247
 C         3.149013        -1.165702         0.450997
 C         3.347127        -1.045729        -1.097050
 C         2.561934         0.276710        -0.851964
 O         2.378318         1.332886        -1.806580
 O         1.680572        -1.308351         0.693076
 H        -0.826838         0.110704         0.717487
 H        -0.407775         0.819083        -0.914231
 H        -0.682831        -0.816163        -0.757821
 H         1.922466         2.034369         0.661639
 H         1.546408         0.845667         2.099982
 H         4.234426         0.967350         0.618777
 H         3.776561        -1.937832         0.956231
 H         4.417518        -0.847092        -1.344572
 H         3.033751        -1.858767        -1.799912
 H         3.278927         1.505774        -2.205483
