19
Iteration:  1444charge 0 multiplicity 1
 C        -0.149826         0.043802        -0.249139
 C         1.286690        -0.004647         0.039925
 C         1.876597         0.854553         1.209501
 C         3.237805         0.448973         0.550816
 C         3.160225        -1.059505         0.467566
 C         3.298119        -1.060768        -1.088762
 C         2.530682         0.293319        -0.832859
 O         2.448802         1.227704        -1.859905
 O         1.654543        -1.287234         0.603096
 H        -0.749954         0.029062         0.797240
 H        -0.471677         0.824411        -0.887773
 H        -0.486185        -0.910478        -0.649251
 H         1.571721         1.915699         1.241612
 H         1.815354         0.423206         2.221343
 H         4.270667         0.920270         0.614416
 H         3.719291        -1.619690         1.232930
 H         4.298975        -0.821051        -1.703916
 H         2.668423        -1.887166        -1.558743
 H         3.348821         1.425202        -2.174951
