19
Iteration:  2217
 C        -0.209193        -0.061499        -0.167043
 C         1.282598         0.026815         0.180618
 C         1.965413         0.967640         1.203705
 C         3.211017         0.402682         0.584939
 C         3.097765        -1.156354         0.372941
 C         3.300030        -1.008570        -1.155615
 C         2.577048         0.333293        -0.883932
 O         2.491308         1.269737        -1.863030
 O         1.657253        -1.258434         0.605367
 H        -0.716905        -0.297606         0.749852
 H        -0.677867         0.743709        -0.605881
 H        -0.374929        -1.051784        -0.758611
 H         1.998364         1.978083         0.779871
 H         1.635042         0.792489         2.276580
 H         4.128701         0.718444         1.020177
 H         3.684965        -1.898778         1.034397
 H         4.356245        -0.863299        -1.264311
 H         2.958522        -1.816574        -1.781136
 H         2.461616         1.010082        -2.764000
