19
Iteration:  1034
 C        -0.164365         0.078620        -0.417427
 C         1.237125         0.055197         0.176732
 C         2.002241         0.886017         1.182309
 C         3.276522         0.434345         0.615700
 C         3.192880        -1.176069         0.428006
 C         3.277868        -1.063947        -1.101502
 C         2.510629         0.288307        -0.785850
 O         2.387447         1.202844        -1.892214
 O         1.713886        -1.330677         0.669966
 H        -0.880153        -0.010307         0.393180
 H        -0.670512         1.032838        -0.923123
 H        -0.206319        -0.720614        -1.165103
 H         2.041718         1.932413         0.943575
 H         1.703331         0.880788         2.261445
 H         4.183580         0.884119         0.813668
 H         3.740445        -1.914078         1.063152
 H         4.224824        -0.875805        -1.512049
 H         2.723308        -1.776058        -1.556888
 H         2.053605         2.108329        -1.744528
