19
Iteration:   130
 C        -0.103425         0.162475        -0.244038
 C         1.301507        -0.066860         0.302520
 C         1.937748         0.968519         1.259503
 C         3.236176         0.399142         0.452487
 C         3.126734        -1.108306         0.425919
 C         3.116277        -1.109493        -1.170728
 C         2.475300         0.183117        -0.878153
 O         2.643157         1.244463        -1.908833
 O         1.635742        -1.268305         0.693278
 H        -0.788933         0.044210         0.652285
 H        -0.087967         1.151708        -0.831981
 H        -0.276834        -0.723985        -0.941564
 H         1.700408         2.037023         0.928520
 H         2.003800         0.775023         2.341404
 H         4.273378         0.787278         0.600796
 H         3.694907        -1.793020         1.007787
 H         4.058908        -0.785873        -1.612410
 H         2.564445        -1.817243        -1.785501
 H         1.843767         1.096150        -2.482576
