19
Iteration:  3732
 C        -0.198200        -0.011500        -0.002868
 C         1.266876         0.000900         0.139111
 C         1.979353         0.981826         1.062034
 C         3.251055         0.428035         0.514785
 C         3.216131        -1.089274         0.415696
 C         3.147535        -1.193617        -1.184371
 C         2.588640         0.251502        -0.939598
 O         2.457765         1.355911        -1.869452
 O         1.694080        -1.296408         0.732048
 H        -0.566156        -0.219680         1.045108
 H        -0.635378         0.821398        -0.473328
 H        -0.483420        -0.876949        -0.654627
 H         1.891756         2.076854         0.852168
 H         1.724812         0.849691         2.058331
 H         4.223047         0.845768         0.611309
 H         3.842746        -1.644890         1.147852
 H         4.051258        -0.850125        -1.832720
 H         2.466164        -1.941501        -1.604647
 H         2.568495         1.111277        -2.812534
