19
Iteration:    46
 C        -0.242453         0.119059        -0.310644
 C         1.235268         0.007750         0.173711
 C         2.083188         0.972556         1.187035
 C         3.383695         0.378217         0.566011
 C         3.072552        -1.110961         0.400772
 C         3.172577        -1.078270        -1.167764
 C         2.559017         0.249347        -0.804755
 O         2.473688         1.106416        -1.908235
 O         1.667024        -1.270156         0.713332
 H        -1.088241        -0.029593         0.374315
 H        -0.291492         1.170882        -0.566047
 H        -0.376376        -0.412473        -1.210091
 H         2.080739         2.023689         1.059532
 H         1.854664         0.797105         2.257937
 H         4.308006         0.803631         0.729351
 H         3.588608        -1.899367         1.028188
 H         4.152090        -0.919121        -1.616147
 H         2.567497        -1.877602        -1.608032
 H         2.316136         2.034673        -1.670995
