19
Iteration:  2519
 C        -0.093016        -0.016910        -0.314674
 C         1.228810        -0.016987         0.203902
 C         1.931745         0.909512         1.200069
 C         3.264181         0.456570         0.528594
 C         3.174987        -1.109210         0.397128
 C         3.149042        -1.070074        -1.121194
 C         2.500607         0.301523        -0.865843
 O         2.468241         1.293764        -1.839644
 O         1.758891        -1.292555         0.723656
 H        -0.835194        -0.139503         0.445940
 H        -0.272819         0.883778        -0.989435
 H        -0.156651        -0.896455        -0.905020
 H         1.814550         1.971055         1.033174
 H         1.815499         0.650336         2.272050
 H         4.246364         0.850211         0.616847
 H         3.800424        -1.868334         0.893169
 H         4.193791        -0.818206        -1.485037
 H         2.734774        -1.879426        -1.790732
 H         1.679938         1.312352        -2.370362
