19
Iteration:  4563
 C        -0.268818         0.013465         0.023771
 C         1.258323        -0.033591         0.182322
 C         1.963370         0.934395         1.138960
 C         3.236843         0.494785         0.482614
 C         3.146397        -1.135347         0.425733
 C         3.230261        -1.116654        -1.194211
 C         2.577087         0.272989        -0.905948
 O         2.521951         1.314436        -1.890617
 O         1.726341        -1.307647         0.635194
 H        -0.819321        -0.128383         0.970156
 H        -0.527127         0.947870        -0.515007
 H        -0.359003        -0.741629        -0.739822
 H         1.885324         1.969332         0.770362
 H         1.893816         1.013187         2.237686
 H         4.208361         1.009055         0.444251
 H         3.750831        -1.958671         0.991441
 H         4.239977        -0.812685        -1.587621
 H         2.738151        -2.000115        -1.621422
 H         1.827453         0.969804        -2.508728
