19
Iteration:  2251charge 0 multiplicity 1
 C        -0.201872         0.044579        -0.102279
 C         1.285852        -0.112628         0.103324
 C         1.871451         0.912922         1.045255
 C         3.156009         0.524578         0.410596
 C         3.134419        -1.089600         0.477842
 C         3.261566        -1.100877        -1.082336
 C         2.513893         0.220379        -0.952006
 O         2.619298         1.358691        -1.708602
 O         1.729335        -1.362969         0.598211
 H        -0.543946        -0.378717         0.750739
 H        -0.553161         1.089807        -0.140666
 H        -0.546375        -0.594634        -1.046951
 H         1.676175         1.992962         0.859735
 H         1.743148         0.857237         2.154289
 H         4.153534         0.917136         0.619273
 H         3.824966        -1.538148         1.225165
 H         4.266339        -1.036231        -1.330615
 H         2.790363        -1.915634        -1.570048
 H         1.890138         1.415365        -2.368846
