19
Iteration:   778charge 0 multiplicity 1
 C        -0.154738         0.121862        -0.260966
 C         1.337541        -0.028759         0.131925
 C         1.887110         1.003640         1.192691
 C         3.210333         0.458696         0.563580
 C         3.187968        -1.164204         0.398134
 C         3.126820        -1.159971        -1.168420
 C         2.511463         0.204413        -0.832291
 O         2.587389         1.247890        -1.884187
 O         1.722033        -1.294604         0.686422
 H        -0.607912        -0.311948         0.737443
 H        -0.570535         1.110362        -0.345506
 H        -0.283934        -0.592706        -1.154361
 H         1.605664         2.062626         0.837422
 H         1.718522         0.874194         2.259595
 H         4.268635         0.961390         0.662933
 H         3.769160        -1.935178         0.966645
 H         4.087678        -1.043702        -1.628653
 H         2.531627        -1.861700        -1.606124
 H         1.789685         1.786577        -1.671040
