19
Iteration:  4648
 C        -0.068374         0.115459        -0.267438
 C         1.310334        -0.041911         0.201604
 C         1.900710         0.987021         1.059596
 C         3.344486         0.431588         0.470223
 C         3.178048        -1.166752         0.449892
 C         3.178832        -1.122818        -1.158942
 C         2.514552         0.206344        -0.882585
 O         2.265242         1.282612        -1.754503
 O         1.817129        -1.247129         0.743377
 H        -0.837114        -0.093288         0.557196
 H        -0.306764         1.156069        -0.717837
 H        -0.375600        -0.587312        -0.967337
 H         1.814431         1.980212         0.743256
 H         1.918657         0.824370         2.121119
 H         4.417401         0.695062         0.659764
 H         3.781831        -1.942389         1.034065
 H         4.252486        -1.173009        -1.536653
 H         2.781291        -1.999352        -1.687397
 H         1.462104         1.203494        -2.295580
