19
Iteration:   800
 C        -0.179018        -0.022085        -0.258207
 C         1.324814         0.049218         0.161344
 C         1.974120         0.912310         1.195615
 C         3.294181         0.407278         0.526130
 C         3.078547        -1.112336         0.442595
 C         3.152008        -1.034451        -1.085520
 C         2.546544         0.319691        -0.829395
 O         2.482402         1.163469        -1.955843
 O         1.669202        -1.266239         0.657587
 H        -0.891424        -0.392758         0.598065
 H        -0.550768         0.981811        -0.435414
 H        -0.180572        -0.619898        -1.251056
 H         1.923363         2.033654         0.998027
 H         1.785779         0.683573         2.239477
 H         4.407989         0.759807         0.672560
 H         3.717310        -1.867544         0.941353
 H         4.131521        -0.854729        -1.493652
 H         2.641897        -1.787040        -1.532795
 H         2.819337         2.002491        -1.607266
