19
Iteration:  2564charge 0 multiplicity 1
 C        -0.206208        -0.050959        -0.023795
 C         1.258435        -0.059854         0.186906
 C         1.933423         1.011285         1.092730
 C         3.247778         0.488097         0.510395
 C         3.071166        -1.141813         0.373716
 C         3.347111        -1.078112        -1.115722
 C         2.618805         0.312966        -0.919923
 O         2.536691         1.333658        -1.802387
 O         1.645438        -1.365983         0.569686
 H        -0.872779        -0.244300         0.880038
 H        -0.628633         0.919984        -0.415934
 H        -0.594440        -0.807173        -0.702106
 H         1.607092         1.945684         0.619958
 H         1.643003         0.983959         2.140053
 H         4.162216         0.997748         0.763138
 H         3.641349        -1.757228         1.021472
 H         4.447445        -0.850528        -1.302926
 H         2.976814        -1.978486        -1.790732
 H         1.992703         1.064507        -2.549231
