19
Iteration:  1816charge 0 multiplicity 1
 C        -0.089944         0.110620        -0.415066
 C         1.269525        -0.061338         0.087521
 C         1.927559         1.034132         1.080177
 C         3.277775         0.420217         0.519190
 C         3.198261        -1.196761         0.515319
 C         3.353544        -1.161242        -1.096043
 C         2.627630         0.209502        -0.857151
 O         2.154563         1.327817        -1.615366
 O         1.691598        -1.316144         0.634176
 H        -0.895820         0.040347         0.440849
 H        -0.226015         1.128127        -0.925195
 H        -0.409197        -0.640330        -1.116506
 H         1.835503         2.048916         0.708615
 H         1.753593         0.886310         2.186767
 H         4.152374         0.991986         0.645150
 H         3.810603        -1.936926         1.136350
 H         4.374796        -1.073909        -1.367247
 H         2.858480        -1.970741        -1.653604
 H         2.951967         1.609138        -2.162159
