19
Iteration:  2278
 C        -0.222114         0.031059        -0.283141
 C         1.289283        -0.040563         0.133690
 C         1.874203         0.943974         1.132597
 C         3.278442         0.455251         0.532657
 C         3.178922        -1.223680         0.466019
 C         3.248620        -1.054404        -1.100989
 C         2.531025         0.284807        -0.872292
 O         2.486728         1.333961        -1.807739
 O         1.777369        -1.320326         0.661107
 H        -0.847009        -0.386523         0.646531
 H        -0.628953         1.096169        -0.404226
 H        -0.351761        -0.503277        -1.165244
 H         1.813362         1.981078         0.826664
 H         1.514211         0.949826         2.164962
 H         4.305606         0.853151         0.643945
 H         3.781105        -1.839889         1.136090
 H         4.311513        -1.051139        -1.551170
 H         2.675186        -1.863211        -1.668329
 H         1.598191         1.323276        -2.190553
