19
Iteration:  3796
 C        -0.101477         0.176681        -0.327513
 C         1.412267         0.001255         0.152997
 C         2.044580         0.923511         1.187271
 C         3.349861         0.479370         0.503149
 C         3.229552        -1.153971         0.469921
 C         3.122512        -1.154374        -1.112029
 C         2.540224         0.247522        -0.878744
 O         2.037197         1.163731        -1.865729
 O         1.795950        -1.266792         0.732564
 H        -0.953919         0.079096         0.512419
 H        -0.000655         1.186616        -0.650025
 H        -0.310442        -0.536208        -1.117645
 H         1.847982         1.982466         1.190113
 H         1.885053         0.527142         2.125566
 H         4.341775         0.909816         0.640993
 H         3.709377        -1.954905         1.072017
 H         4.036234        -1.068467        -1.599185
 H         2.720931        -1.971765        -1.597327
 H         2.741284         1.785825        -2.191256
