19
Iteration:  1458
 C        -0.180402        -0.012094        -0.258511
 C         1.324334         0.001724         0.094847
 C         1.954577         0.928173         1.160577
 C         3.270040         0.433447         0.624660
 C         3.087360        -1.152640         0.510659
 C         3.301485        -1.001915        -1.109197
 C         2.581780         0.263740        -0.909895
 O         2.344786         1.231794        -1.851196
 O         1.674628        -1.277685         0.601448
 H        -0.760479         0.117795         0.743489
 H        -0.403408         0.971261        -0.884165
 H        -0.400269        -0.871442        -0.801294
 H         1.891380         1.962591         0.893256
 H         1.507201         0.673933         2.161993
 H         4.204908         0.860138         0.868679
 H         3.537834        -1.990640         1.058259
 H         4.338266        -0.769613        -1.137893
 H         3.044217        -1.729126        -1.836140
 H         3.179735         1.516937        -2.237102
