19
Iteration:  3870charge 0 multiplicity 1
 C        -0.199083        -0.112682        -0.006576
 C         1.279446         0.101008         0.174227
 C         2.001608         1.061649         1.078003
 C         3.300204         0.445265         0.459711
 C         3.088812        -1.147322         0.400901
 C         3.137718        -1.141816        -1.105938
 C         2.565174         0.230621        -0.920151
 O         2.417102         1.274063        -1.833612
 O         1.744248        -1.253360         0.589388
 H        -0.527734        -0.207757         1.096956
 H        -0.516435         0.812536        -0.442509
 H        -0.468937        -0.907296        -0.564352
 H         1.845934         2.143486         0.956517
 H         1.872330         0.852938         2.209408
 H         4.328492         0.725485         0.667059
 H         3.640773        -1.730329         1.161216
 H         4.158169        -1.082041        -1.504113
 H         2.550790        -1.765016        -1.851188
 H         2.972690         1.125288        -2.594819
