19
Iteration:  2147charge 0 multiplicity 1
 C        -0.037398         0.134582        -0.433030
 C         1.358809        -0.063273         0.115016
 C         1.981890         0.948126         1.114794
 C         3.283920         0.458995         0.496352
 C         3.155022        -1.197017         0.441706
 C         3.261913        -1.082350        -1.037869
 C         2.514875         0.183003        -0.878524
 O         2.171152         1.262855        -1.705976
 O         1.683267        -1.324810         0.722446
 H        -0.692342         0.040520         0.542921
 H        -0.010306         1.171724        -0.858464
 H        -0.322457        -0.552077        -1.106836
 H         1.779648         1.927381         0.583374
 H         1.971478         0.916417         2.218230
 H         4.273987         0.998793         0.617007
 H         3.767678        -1.940812         0.873528
 H         4.344788        -0.771032        -1.396676
 H         2.804708        -1.896976        -1.714138
 H         2.698032         2.036719        -1.644023
