19
Iteration:  3571charge 0 multiplicity 1
 C        -0.250534        -0.043512         0.012813
 C         1.272046         0.062472         0.127961
 C         2.052427         0.930626         1.075209
 C         3.279978         0.460814         0.436791
 C         3.107227        -1.154762         0.527722
 C         3.253909        -1.215881        -1.144146
 C         2.481113         0.235539        -0.943519
 O         2.469510         1.431101        -1.863750
 O         1.733538        -1.261803         0.665030
 H        -0.589552        -0.275271         0.995931
 H        -0.799397         0.886991        -0.415132
 H        -0.543141        -0.944648        -0.815183
 H         1.670404         1.972418         0.744878
 H         1.852573         0.618476         2.162926
 H         4.235002         0.920810         0.348122
 H         3.666237        -1.879428         1.155078
 H         4.270715        -0.838723        -1.433997
 H         3.010936        -2.109665        -1.751289
 H         2.154811         1.181225        -2.730229
