19
Iteration:  3515
 C        -0.157069        -0.007008        -0.133804
 C         1.313722         0.001897         0.153685
 C         2.027869         0.905026         1.172938
 C         3.265752         0.412925         0.524663
 C         3.173473        -1.138720         0.408728
 C         3.191115        -1.057005        -1.081575
 C         2.524617         0.287692        -0.951585
 O         2.415679         1.337779        -1.943836
 O         1.712961        -1.291903         0.754558
 H        -0.819325        -0.044832         0.760831
 H        -0.353466         0.984111        -0.593229
 H        -0.634279        -0.902036        -0.871605
 H         1.786800         2.028891         0.956203
 H         1.620146         0.749115         2.211857
 H         4.266436         0.736888         0.549597
 H         3.896333        -1.858550         0.826653
 H         4.261065        -1.131575        -1.446005
 H         2.547749        -1.803981        -1.566251
 H         1.830511         1.190018        -2.719462
