19
Iteration:  3380
 C        -0.188334         0.004388         0.029303
 C         1.285468         0.029450         0.076582
 C         1.879206         0.955062         1.083956
 C         3.197553         0.419284         0.524340
 C         3.104036        -1.163155         0.363022
 C         3.190762        -0.996010        -1.216117
 C         2.602196         0.306000        -0.946302
 O         2.517862         1.247415        -1.845105
 O         1.761935        -1.284688         0.759471
 H        -0.621226        -0.176948         1.142116
 H        -0.620881         0.869870        -0.534950
 H        -0.539528        -0.828791        -0.541776
 H         1.872706         2.001291         0.986396
 H         1.516530         0.613578         2.042812
 H         4.244536         0.774224         0.700885
 H         3.651809        -1.955878         0.816512
 H         4.232179        -1.031183        -1.474312
 H         2.579310        -1.678314        -1.851775
 H         2.887754         0.890113        -2.698242
