19
Iteration:  4398charge 0 multiplicity 1
 C        -0.245601        -0.013944        -0.041440
 C         1.234756         0.044514         0.202363
 C         2.006759         0.969949         1.096282
 C         3.312024         0.413321         0.440229
 C         3.147162        -1.135064         0.439900
 C         3.277904        -1.117436        -1.129114
 C         2.526174         0.251359        -0.894694
 O         2.472348         1.295686        -1.906045
 O         1.692208        -1.248695         0.647522
 H        -0.619466        -0.217250         1.033046
 H        -0.670117         1.003625        -0.482101
 H        -0.658413        -0.830322        -0.728720
 H         1.885703         2.027281         0.954337
 H         1.832042         0.610286         2.145365
 H         4.326081         0.784604         0.507195
 H         3.737423        -1.877330         0.891147
 H         4.305989        -0.729396        -1.267131
 H         2.958429        -2.007498        -1.673142
 H         1.691070         1.072305        -2.416232
