19
Iteration:  4766charge 0 multiplicity 1
 C        -0.150241        -0.025272        -0.237013
 C         1.288072         0.047238         0.162259
 C         2.107950         0.992254         1.111012
 C         3.363508         0.432096         0.372095
 C         3.103698        -1.131330         0.367495
 C         3.218767        -1.114534        -1.084983
 C         2.505119         0.257284        -0.842596
 O         2.274378         1.240260        -1.739677
 O         1.713968        -1.226341         0.743767
 H        -0.856511        -0.334271         0.590305
 H        -0.410824         1.013555        -0.663348
 H        -0.240437        -0.759076        -1.005594
 H         2.111131         2.089873         0.861759
 H         1.932959         0.877239         2.236251
 H         4.383692         0.889830         0.484594
 H         3.686953        -1.771128         1.064880
 H         4.294363        -1.136851        -1.447481
 H         2.749763        -1.888584        -1.650809
 H         1.817270         0.844001        -2.514548
