19
Iteration:   965charge 0 multiplicity 1
 C        -0.248102         0.094790        -0.261001
 C         1.228390        -0.035725         0.123173
 C         1.938475         0.938480         1.090515
 C         3.236899         0.438365         0.516586
 C         3.162717        -1.159601         0.435722
 C         3.335063        -1.093722        -1.133109
 C         2.513861         0.196479        -0.848421
 O         2.565324         1.255078        -1.774331
 O         1.690606        -1.305560         0.673963
 H        -0.940261        -0.349447         0.486957
 H        -0.588478         1.164004        -0.153170
 H        -0.323926        -0.307930        -1.307886
 H         1.680987         1.961445         0.792264
 H         1.737144         0.730007         2.092619
 H         4.166688         1.142675         0.602548
 H         3.676486        -1.693461         1.196452
 H         4.283175        -0.717224        -1.570516
 H         2.945313        -1.958892        -1.621868
 H         1.795986         1.813144        -1.799317
