19
Iteration:  4892
 C        -0.180272        -0.040994        -0.029831
 C         1.276415        -0.014688         0.235781
 C         1.958032         0.964546         1.139647
 C         3.281896         0.550302         0.539313
 C         3.200620        -1.100664         0.431590
 C         3.114797        -1.099563        -1.189870
 C         2.412196         0.232296        -0.905582
 O         2.511905         1.159036        -2.010156
 O         1.790392        -1.251158         0.661558
 H        -0.679273        -0.211006         0.905880
 H        -0.477148         0.913763        -0.468017
 H        -0.420550        -0.814448        -0.877344
 H         1.780188         1.951890         0.746832
 H         1.624173         0.880964         2.123068
 H         4.256700         1.037101         0.763030
 H         3.669324        -1.923535         0.949655
 H         3.952437        -0.827656        -1.784139
 H         2.439010        -1.938859        -1.544685
 H         2.786973         2.040440        -1.701987
