19
Iteration:  2401
 C        -0.269660        -0.130756        -0.051912
 C         1.255801         0.087496         0.066532
 C         1.916108         0.929387         1.139244
 C         3.276186         0.473793         0.552586
 C         3.036886        -1.131509         0.408050
 C         3.346195        -1.071312        -1.074304
 C         2.593327         0.340233        -0.872089
 O         2.571074         1.288973        -1.866929
 O         1.691426        -1.262687         0.552095
 H        -0.715809        -0.463014         1.090575
 H        -0.780095         0.679390        -0.502474
 H        -0.427779        -1.045842        -0.696827
 H         1.873110         1.999460         1.042404
 H         1.712829         0.549549         2.137655
 H         4.198861         0.969217         0.753848
 H         3.484268        -1.873966         1.086501
 H         4.440775        -0.935762        -1.334805
 H         2.757951        -1.727517        -1.805506
 H         1.933212         1.004959        -2.564153
