19
Iteration:  1042
 C        -0.202461         0.092108        -0.398204
 C         1.247539         0.008498         0.118540
 C         2.008524         0.896560         1.177862
 C         3.307331         0.392598         0.521482
 C         3.223318        -1.131980         0.510563
 C         3.234898        -1.046584        -1.026153
 C         2.473526         0.282709        -0.867784
 O         2.414087         1.223349        -1.831393
 O         1.695962        -1.333345         0.655648
 H        -0.953054        -0.103444         0.370149
 H        -0.294723         1.070238        -0.998062
 H        -0.271495        -0.826840        -1.003612
 H         1.857281         1.946278         0.876937
 H         1.898345         0.661341         2.187475
 H         4.280797         1.001335         0.777775
 H         3.707853        -1.890124         1.088918
 H         4.181737        -0.716532        -1.579956
 H         2.750213        -1.892570        -1.623600
 H         2.097837         2.110826        -1.526070
