19
Iteration:  2691
 C        -0.113388        -0.003089        -0.185561
 C         1.324946        -0.039699         0.131306
 C         1.997668         0.956923         1.095239
 C         3.279846         0.403069         0.542994
 C         3.163646        -1.118789         0.490879
 C         3.271069        -1.097203        -1.144379
 C         2.499170         0.259675        -0.883530
 O         2.362270         1.341912        -1.802748
 O         1.686406        -1.324796         0.598501
 H        -0.772244        -0.039706         0.598085
 H        -0.374459         0.908055        -0.906679
 H        -0.339115        -0.799563        -0.850850
 H         2.042689         2.008331         0.826604
 H         1.729059         0.866662         2.192528
 H         4.250426         0.834407         0.604413
 H         3.608796        -1.811430         1.257437
 H         4.241528        -0.931283        -1.658824
 H         2.742461        -2.008453        -1.525424
 H         1.547418         1.900904        -1.641724
