19
Iteration:  4605charge 0 multiplicity 1
 C        -0.109316        -0.059364        -0.278347
 C         1.322899         0.054953         0.270015
 C         2.102589         1.016365         1.198247
 C         3.368412         0.464482         0.452926
 C         3.108835        -1.145938         0.429985
 C         3.124608        -1.177538        -1.130854
 C         2.490271         0.252954        -0.872643
 O         2.313682         1.315655        -1.820688
 O         1.747804        -1.268092         0.690073
 H        -1.012074        -0.404319         0.324243
 H        -0.315941         0.960696        -0.766827
 H        -0.081084        -0.626403        -1.166918
 H         1.812304         2.017693         0.966671
 H         1.823069         0.722053         2.210687
 H         4.365549         0.948401         0.554592
 H         3.664439        -1.812592         1.175177
 H         4.179030        -1.014376        -1.603354
 H         2.615746        -1.909596        -1.798196
 H         1.596854         1.026518        -2.435984
