19
Iteration:   591
 C        -0.224291         0.204268        -0.235575
 C         1.271517         0.010841         0.185594
 C         2.035861         0.906487         1.268916
 C         3.335738         0.370713         0.449593
 C         3.225864        -1.141805         0.422455
 C         3.124050        -1.174396        -1.088887
 C         2.447679         0.239712        -0.905626
 O         2.498123         1.216173        -1.963995
 O         1.679241        -1.286056         0.711790
 H        -1.033117         0.053921         0.531300
 H        -0.387157         1.277173        -0.457079
 H        -0.466023        -0.318889        -1.128938
 H         1.838925         2.004833         1.100102
 H         1.943874         0.557451         2.317680
 H         4.224444         0.875526         0.343683
 H         3.734714        -1.897936         1.011321
 H         4.143074        -0.965043        -1.582742
 H         2.596373        -2.007073        -1.581537
 H         2.499847         2.074337        -1.487092
