19
Iteration:  1953
 C        -0.146541         0.014258        -0.336805
 C         1.328073        -0.049558         0.092746
 C         2.001999         0.957810         1.190688
 C         3.254444         0.430571         0.542082
 C         3.114166        -1.117997         0.474247
 C         3.199427        -1.064081        -1.036652
 C         2.549584         0.294433        -0.887775
 O         2.321815         1.309154        -1.797007
 O         1.719801        -1.338156         0.631976
 H        -0.737540        -0.136490         0.607891
 H        -0.343240         0.941948        -0.811806
 H        -0.288514        -0.843880        -1.167013
 H         1.841622         2.018286         1.075114
 H         1.819490         0.610981         2.214350
 H         4.278100         0.844698         0.746006
 H         3.767960        -1.646099         1.106956
 H         4.214586        -0.938355        -1.318703
 H         2.721964        -1.846585        -1.593035
 H         2.965601         1.409660        -2.486405
