19
Iteration:   756charge 0 multiplicity 1
 C        -0.228324         0.085448        -0.223155
 C         1.220812        -0.047473         0.127869
 C         2.069508         0.934137         1.062212
 C         3.302005         0.391496         0.466672
 C         3.086403        -1.155148         0.488626
 C         3.225648        -1.107156        -1.078583
 C         2.581469         0.251377        -0.900893
 O         2.475205         1.363271        -1.778266
 O         1.692014        -1.320754         0.674739
 H        -0.970079        -0.035062         0.683374
 H        -0.298439         1.127816        -0.495264
 H        -0.324156        -0.606227        -1.129051
 H         1.925574         2.048922         0.793195
 H         1.819817         0.747020         2.107289
 H         4.315011         0.917590         0.686201
 H         3.582115        -1.775061         1.266994
 H         4.282404        -1.145013        -1.282777
 H         2.651224        -1.731905        -1.666064
 H         1.782755         1.074423        -2.425455
