19
Iteration:  1858
 C        -0.172986        -0.030932        -0.385552
 C         1.302922         0.048523         0.160024
 C         1.983165         0.901902         1.280782
 C         3.280114         0.463199         0.593361
 C         3.189612        -1.164319         0.433520
 C         3.186225        -1.038184        -1.092226
 C         2.525930         0.320943        -0.809329
 O         2.366009         1.211215        -1.915008
 O         1.684494        -1.275693         0.663958
 H        -0.890667        -0.239631         0.358482
 H        -0.390614         0.901403        -0.840882
 H        -0.192675        -0.709793        -1.231628
 H         1.909660         1.968340         1.121112
 H         1.754761         0.502811         2.314865
 H         4.251840         0.908231         0.664291
 H         3.721514        -1.914613         1.115122
 H         4.249452        -0.799341        -1.525716
 H         2.588831        -1.756142        -1.752214
 H         3.170402         1.690645        -2.177318
