19
Iteration:  3530
 C        -0.162387         0.033366        -0.036503
 C         1.294335        -0.098196         0.205801
 C         1.873815         0.982755         1.077879
 C         3.270345         0.478811         0.462430
 C         3.100723        -1.183437         0.422857
 C         3.143360        -1.085067        -1.181043
 C         2.559462         0.335281        -0.874210
 O         2.511553         1.337004        -1.905910
 O         1.787804        -1.357853         0.702720
 H        -0.659002        -0.040901         0.907205
 H        -0.444823         1.042829        -0.496096
 H        -0.456346        -0.761172        -0.649916
 H         1.748669         1.959413         0.678509
 H         1.857428         0.930223         2.176947
 H         4.194067         1.066941         0.740319
 H         3.694159        -1.850189         1.073120
 H         4.111371        -0.871279        -1.587899
 H         2.641524        -1.867863        -1.764235
 H         2.101221         0.699646        -2.559764
