19
Iteration:  1833
 C        -0.059599         0.028063        -0.398836
 C         1.392012        -0.006091         0.139831
 C         2.003963         0.994641         1.133677
 C         3.292246         0.426056         0.600032
 C         3.046220        -1.177248         0.459068
 C         3.313715        -1.072418        -1.101888
 C         2.543086         0.257278        -0.837259
 O         2.173492         1.263549        -1.762132
 O         1.668352        -1.328067         0.655198
 H        -0.715736        -0.048742         0.408838
 H        -0.167401         0.970172        -0.905962
 H        -0.106293        -0.757635        -1.243090
 H         1.868648         2.002255         0.715569
 H         1.669847         0.956219         2.164370
 H         4.403230         0.599100         0.734886
 H         3.504178        -1.795127         1.176378
 H         4.438381        -0.816978        -1.309481
 H         2.875225        -1.860347        -1.784513
 H         2.894488         1.909579        -1.982632
