19
Iteration:  1934charge 0 multiplicity 1
 C        -0.147462        -0.020683        -0.188235
 C         1.333376         0.028172         0.094311
 C         1.923607         1.018771         1.081802
 C         3.313951         0.413831         0.521512
 C         3.061115        -1.233791         0.456716
 C         3.413917        -1.064547        -1.082132
 C         2.569465         0.257636        -0.819839
 O         2.306675         1.328255        -1.733494
 O         1.622300        -1.277090         0.579338
 H        -0.640735        -0.323850         0.658375
 H        -0.547258         0.871039        -0.578833
 H        -0.347037        -0.875620        -1.028230
 H         1.868950         1.973376         0.595115
 H         1.617550         0.970180         2.139945
 H         4.247232         0.945845         0.662812
 H         3.478272        -2.102369         1.040587
 H         4.523835        -0.724780        -1.276081
 H         3.074088        -1.906902        -1.781557
 H         2.765339         1.101721        -2.536468
