19
Iteration:  4019
 C        -0.224289        -0.042538        -0.072633
 C         1.268270         0.070384         0.226701
 C         2.035683         0.992560         1.147639
 C         3.265381         0.466590         0.483143
 C         3.131072        -1.103224         0.467275
 C         3.142643        -1.132144        -1.153983
 C         2.513631         0.270978        -0.942489
 O         2.424306         1.262795        -1.837604
 O         1.772216        -1.319156         0.600248
 H        -0.686787        -0.093878         0.889222
 H        -0.520538         0.842344        -0.739543
 H        -0.326513        -1.023502        -0.798785
 H         1.855975         1.989109         0.799447
 H         1.951389         0.928936         2.254584
 H         4.143687         1.136581         0.501013
 H         3.838580        -1.780057         0.926356
 H         4.136883        -1.086095        -1.619982
 H         2.378654        -1.750654        -1.549324
 H         3.020825         1.004407        -2.537226
