19
Iteration:  1727
 C        -0.195933        -0.001342        -0.212831
 C         1.293686         0.014903         0.087150
 C         1.846382         0.968111         1.138372
 C         3.249939         0.476668         0.539205
 C         3.104155        -1.130987         0.432992
 C         3.314276        -1.157738        -1.079757
 C         2.594902         0.276373        -0.880308
 O         2.400961         1.314699        -1.787351
 O         1.710772        -1.317895         0.581761
 H        -0.767409        -0.436745         0.666617
 H        -0.519341         0.981064        -0.433579
 H        -0.423519        -0.764475        -1.089385
 H         1.751727         2.016075         0.905541
 H         1.683243         0.776090         2.240948
 H         4.229634         0.882304         0.808541
 H         3.657441        -1.739935         1.150784
 H         4.342139        -1.013668        -1.080307
 H         3.058090        -1.987349        -1.702647
 H         3.232111         1.522923        -2.285988
