19
Iteration:  3045
 C        -0.131407         0.017171        -0.019582
 C         1.309739        -0.016308         0.190536
 C         1.964543         0.968208         1.196869
 C         3.201952         0.419619         0.385320
 C         3.035431        -1.214048         0.395393
 C         3.270722        -1.053670        -1.061108
 C         2.564366         0.295654        -0.918270
 O         2.482380         1.347737        -1.927560
 O         1.628494        -1.293444         0.642513
 H        -0.430463        -0.062312         0.937225
 H        -0.651146         0.813687        -0.544152
 H        -0.337503        -0.988697        -0.610374
 H         1.901328         2.007977         1.051960
 H         1.891349         0.669526         2.177950
 H         4.283963         0.680539         0.690495
 H         3.761754        -1.727825         0.996239
 H         4.273457        -0.779744        -1.328172
 H         2.998504        -1.818353        -1.826759
 H         2.471943         0.878797        -2.822573
