19
Iteration:  3610charge 0 multiplicity 1
 C        -0.136764         0.056583        -0.264923
 C         1.320998         0.026910         0.207261
 C         2.016478         1.003528         1.185423
 C         3.382343         0.461648         0.536367
 C         3.196878        -1.172881         0.405833
 C         3.120373        -1.072681        -1.169470
 C         2.434603         0.235377        -0.822460
 O         2.351625         1.179238        -1.841288
 O         1.797533        -1.303206         0.684007
 H        -0.939357        -0.258914         0.462686
 H        -0.421799         0.946877        -0.727263
 H        -0.241364        -0.637112        -1.026644
 H         1.917392         2.023436         0.813878
 H         1.781777         1.099946         2.203761
 H         4.354143         1.011335         0.676594
 H         3.773831        -1.832695         1.081704
 H         4.033255        -0.808353        -1.745395
 H         2.437404        -1.726997        -1.720865
 H         1.435456         1.233606        -2.238776
