19
Iteration:    47charge 0 multiplicity 1
 C        -0.248748         0.118826        -0.312244
 C         1.237792         0.009399         0.170702
 C         2.083431         0.988439         1.189295
 C         3.394847         0.370356         0.564036
 C         3.074593        -1.120002         0.404091
 C         3.175596        -1.071042        -1.166910
 C         2.555662         0.249299        -0.800734
 O         2.470881         1.104734        -1.906450
 O         1.660224        -1.271404         0.711249
 H        -1.070202        -0.049369         0.371715
 H        -0.298742         1.141610        -0.568128
 H        -0.394451        -0.410016        -1.191498
 H         2.078864         2.034648         1.039168
 H         1.844423         0.793275         2.258553
 H         4.321126         0.796602         0.714232
 H         3.589093        -1.910813         1.044070
 H         4.199075        -0.889738        -1.630766
 H         2.570844        -1.908054        -1.637786
 H         2.312924         2.049899        -1.662935
