19
Iteration:  3132
 C        -0.135187         0.116207        -0.402539
 C         1.317854         0.016910         0.172450
 C         2.135989         0.995863         1.201317
 C         3.394950         0.420918         0.564013
 C         3.139849        -1.191806         0.392220
 C         3.193733        -1.142613        -1.142130
 C         2.528456         0.248044        -0.861073
 O         2.120158         1.186385        -1.812062
 O         1.736551        -1.259549         0.724502
 H        -0.871042        -0.178152         0.315629
 H        -0.370379         1.147115        -0.664011
 H        -0.256675        -0.718516        -1.271496
 H         2.309839         2.045193         1.046998
 H         1.873272         0.830064         2.204652
 H         4.484322         0.779237         0.548926
 H         3.665124        -1.877391         1.006540
 H         4.212010        -1.064491        -1.545606
 H         2.572782        -1.901014        -1.721561
 H         2.285020         2.075906        -1.414735
