19
Iteration:   761charge 0 multiplicity 1
 C        -0.242778         0.077902        -0.227377
 C         1.216601        -0.021854         0.137614
 C         2.017675         0.945242         1.080485
 C         3.324958         0.412994         0.461170
 C         3.104287        -1.145016         0.453370
 C         3.206377        -1.102616        -1.070915
 C         2.619521         0.285703        -0.899103
 O         2.506585         1.316546        -1.780251
 O         1.698007        -1.348788         0.693720
 H        -0.930525        -0.084883         0.534871
 H        -0.300136         1.173929        -0.470821
 H        -0.465067        -0.515510        -1.097256
 H         1.883781         1.997325         0.793403
 H         1.707551         0.764455         2.156240
 H         4.262181         0.846188         0.643981
 H         3.670849        -1.747712         1.149941
 H         4.292120        -1.173330        -1.447315
 H         2.516185        -1.913210        -1.638482
 H         1.665703         1.274198        -2.266477
