19
Iteration:  3736charge 0 multiplicity 1
 C        -0.187409        -0.016206        -0.031614
 C         1.254629         0.023180         0.145180
 C         2.004827         0.992540         1.071006
 C         3.240996         0.441620         0.494939
 C         3.248198        -1.107414         0.399956
 C         3.136010        -1.177449        -1.179020
 C         2.589387         0.273826        -0.904568
 O         2.427574         1.332640        -1.845384
 O         1.698360        -1.305890         0.709519
 H        -0.549178        -0.145471         0.936745
 H        -0.781577         0.829726        -0.474102
 H        -0.536257        -0.879740        -0.681712
 H         1.992969         2.076949         0.709946
 H         1.680720         0.914418         2.207048
 H         4.285841         0.801713         0.615463
 H         3.801635        -1.680067         1.131473
 H         4.079726        -0.896506        -1.717785
 H         2.472645        -2.003681        -1.587727
 H         2.628061         0.932946        -2.720677
