19
Iteration:  2843
 C        -0.096245         0.011985        -0.287964
 C         1.336094         0.094466         0.164773
 C         1.967013         0.880341         1.244971
 C         3.328133         0.402066         0.564776
 C         3.182004        -1.158470         0.408517
 C         3.116927        -1.083262        -1.171382
 C         2.572436         0.348346        -0.846024
 O         2.336082         1.206849        -1.948546
 O         1.746585        -1.254619         0.714757
 H        -0.741191        -0.196957         0.695434
 H        -0.528796         0.919466        -0.868218
 H        -0.079898        -0.912600        -0.782856
 H         1.792742         1.914949         1.131888
 H         1.744292         0.566134         2.288850
 H         4.224103         0.829093         0.855568
 H         3.534261        -2.017466         0.908053
 H         4.215422        -0.909006        -1.542270
 H         2.548814        -1.719118        -1.931501
 H         1.624996         1.879635        -1.756527
