19
Iteration:  4384charge 0 multiplicity 1
 C        -0.254222        -0.004656         0.021378
 C         1.289935         0.003580         0.069222
 C         2.035149         0.866708         1.215590
 C         3.239340         0.487644         0.411645
 C         3.100256        -1.126733         0.423346
 C         3.238734        -1.125285        -1.078649
 C         2.501612         0.291190        -0.994097
 O         2.531910         1.307846        -1.949409
 O         1.728996        -1.268707         0.686229
 H        -0.872679        -0.073052         1.003178
 H        -0.671841         0.961535        -0.359092
 H        -0.505945        -0.846519        -0.508495
 H         1.795107         1.922935         1.166057
 H         1.986942         0.541459         2.207550
 H         4.215622         0.985103         0.651185
 H         3.550292        -1.594214         1.270382
 H         4.299383        -0.919518        -1.349706
 H         2.846848        -1.921156        -1.803209
 H         1.907012         1.145680        -2.702864
