19
Iteration:  4587
 C        -0.109321        -0.020858        -0.198548
 C         1.345413         0.028692         0.119450
 C         1.988367         0.950031         1.143748
 C         3.276514         0.382610         0.527688
 C         3.160323        -1.170999         0.390550
 C         3.125775        -1.022521        -1.143931
 C         2.528765         0.331750        -0.864899
 O         2.386066         1.250396        -1.873071
 O         1.717456        -1.248669         0.750636
 H        -0.260316        -0.295573         0.816942
 H        -0.579184         0.882027        -0.457098
 H        -0.273202        -0.895973        -0.949112
 H         1.984030         2.088076         0.967347
 H         1.843780         0.842257         2.251740
 H         4.265874         0.798595         0.634479
 H         3.869614        -1.914742         0.859895
 H         4.099837        -0.994779        -1.557139
 H         2.392407        -1.753983        -1.531027
 H         1.739562         1.012367        -2.570549
