19
Iteration:  3312
 C         0.004622         0.145106        -0.328162
 C         1.355755         0.028487         0.187387
 C         2.031553         0.973504         1.119380
 C         3.352667         0.320560         0.564494
 C         3.120893        -1.226637         0.391867
 C         3.169499        -1.049268        -1.150603
 C         2.545793         0.260592        -0.834667
 O         2.101703         1.188609        -1.903433
 O         1.746229        -1.255941         0.804891
 H        -0.779658        -0.190803         0.495071
 H        -0.129243         1.123686        -0.928370
 H        -0.120890        -0.629203        -1.049747
 H         2.082967         1.984200         1.016913
 H         1.742119         0.653029         2.070541
 H         4.294077         0.891667         0.756168
 H         3.813496        -2.081662         0.718648
 H         4.202146        -0.888987        -1.487092
 H         2.549708        -1.745568        -1.678807
 H         2.327642         2.062214        -1.536770
