19
Iteration:  3690charge 0 multiplicity 1
 C        -0.248364        -0.019544         0.003202
 C         1.247183         0.026147         0.225129
 C         2.042834         1.046825         1.129700
 C         3.309629         0.444909         0.483209
 C         3.173473        -1.088339         0.458952
 C         3.239931        -1.035455        -1.223404
 C         2.409391         0.190686        -0.938130
 O         2.548409         1.218756        -1.881867
 O         1.704719        -1.326471         0.634927
 H        -0.858920        -0.198532         0.796789
 H        -0.668523         0.858018        -0.420870
 H        -0.487140        -0.739949        -0.854144
 H         1.819412         2.114797         0.759390
 H         1.897946         0.880704         2.244596
 H         4.279507         0.873863         0.578136
 H         3.688730        -1.822273         1.109237
 H         4.298088        -0.786883        -1.606218
 H         2.690570        -1.900719        -1.666079
 H         1.737206         1.195429        -2.460428
