19
Iteration:  1639charge 0 multiplicity 1
 C        -0.126126         0.017734        -0.385062
 C         1.284875         0.045115         0.135389
 C         1.966460         0.889610         1.263487
 C         3.298145         0.390042         0.626534
 C         3.148470        -1.188890         0.495522
 C         3.267823        -1.032125        -1.088378
 C         2.506388         0.366722        -0.871164
 O         2.301168         1.293100        -1.894532
 O         1.712966        -1.287493         0.652865
 H        -1.010436        -0.144803         0.343871
 H        -0.238856         0.801503        -1.061151
 H        -0.049752        -1.000680        -1.056393
 H         1.804715         1.976990         1.173270
 H         1.688311         0.644133         2.330017
 H         4.272803         0.924584         0.833042
 H         3.603071        -1.988034         1.071222
 H         4.176660        -0.855214        -1.528489
 H         2.814800        -1.791113        -1.690677
 H         3.080148         1.026099        -2.466861
