19
Iteration:  1045
 C        -0.200713         0.079620        -0.378690
 C         1.274360        -0.015698         0.106179
 C         1.999153         0.914623         1.169941
 C         3.319352         0.395205         0.499711
 C         3.207078        -1.111837         0.521367
 C         3.214368        -1.047982        -1.028336
 C         2.470300         0.272204        -0.878867
 O         2.425693         1.235189        -1.822539
 O         1.692302        -1.328173         0.647127
 H        -0.965116        -0.082890         0.371744
 H        -0.177722         1.074986        -1.033327
 H        -0.339826        -0.808631        -1.015489
 H         1.776515         1.928511         0.943464
 H         1.921526         0.587810         2.229942
 H         4.194593         0.906642         0.655107
 H         3.740290        -1.879394         1.133463
 H         4.112746        -0.741935        -1.478282
 H         2.849611        -1.833997        -1.562360
 H         2.120634         2.031999        -1.381683
