19
Iteration:   172
 C        -0.106062         0.121606        -0.254462
 C         1.313285         0.105584         0.060783
 C         2.053839         0.965070         1.150665
 C         3.296794         0.272698         0.578008
 C         3.113151        -1.213020         0.492398
 C         3.222077        -1.146123        -1.136850
 C         2.566226         0.244383        -0.857820
 O         2.295439         1.237994        -1.792675
 O         1.633097        -1.168046         0.651733
 H        -0.529520        -0.062789         0.709562
 H        -0.468297         1.076159        -0.667606
 H        -0.472240        -0.712471        -0.887063
 H         2.106382         2.014712         0.714379
 H         1.701177         0.807630         2.173174
 H         4.340977         0.742974         0.635096
 H         3.489430        -1.874021         1.219098
 H         4.328132        -1.048768        -1.646766
 H         2.653683        -2.037202        -1.680292
 H         3.000673         1.310441        -2.509387
