19
Iteration:  1688charge 0 multiplicity 1
 C        -0.131884         0.085362        -0.465791
 C         1.290740        -0.032096         0.139981
 C         1.955878         0.995639         1.113123
 C         3.255291         0.387469         0.584158
 C         3.173150        -1.149189         0.454051
 C         3.229120        -1.119904        -1.050289
 C         2.515093         0.251622        -0.837875
 O         2.256718         1.293245        -1.744535
 O         1.795330        -1.348519         0.687481
 H        -0.748515        -0.320086         0.375037
 H        -0.378547         1.235638        -0.586774
 H        -0.270919        -0.443257        -1.347145
 H         1.786703         2.048312         0.777614
 H         1.486723         0.885184         2.073623
 H         4.193915         0.904649         0.733269
 H         3.814393        -1.876933         0.988875
 H         4.312942        -0.713883        -1.392207
 H         2.928302        -1.953362        -1.754551
 H         3.113484         1.619402        -2.002743
