19
Iteration:  2810charge 0 multiplicity 1
 C        -0.094797         0.115632        -0.392611
 C         1.219217        -0.138692         0.295619
 C         2.085022         0.974494         1.221394
 C         3.288902         0.468017         0.414859
 C         3.186394        -1.114761         0.479159
 C         3.168828        -1.125619        -1.153846
 C         2.524709         0.289737        -0.852669
 O         2.275664         1.262156        -1.823767
 O         1.763051        -1.368734         0.695420
 H        -1.060772        -0.126286         0.205628
 H        -0.208999         1.109901        -0.943811
 H        -0.144061        -0.461794        -1.256889
 H         1.789685         1.941196         0.926530
 H         2.101890         1.015209         2.340710
 H         4.276263         0.801984         0.474122
 H         3.809431        -1.753754         1.093916
 H         4.251271        -1.036350        -1.580464
 H         2.612447        -1.923378        -1.782296
 H         1.939936         2.038627        -1.369106
