19
Iteration:  4503charge 0 multiplicity 1
 C        -0.160671         0.020317        -0.092104
 C         1.309805        -0.028483         0.142777
 C         1.983868         1.061113         1.144368
 C         3.336242         0.422113         0.579529
 C         3.116298        -1.138087         0.400466
 C         3.157083        -1.077836        -1.169762
 C         2.582414         0.288128        -0.891113
 O         2.376910         1.274713        -1.873894
 O         1.750337        -1.342632         0.674458
 H        -0.859040        -0.169492         0.761224
 H        -0.375145         0.992357        -0.542726
 H        -0.439748        -0.818756        -0.839662
 H         1.832387         2.115652         0.808817
 H         1.681799         0.932366         2.184864
 H         4.408108         0.693764         0.725813
 H         3.736770        -1.829090         0.864613
 H         4.165828        -0.980844        -1.674762
 H         2.683870        -1.967955        -1.671031
 H         1.761330         1.088811        -2.598867
