19
Iteration:  1357
 C        -0.086029         0.043909        -0.401425
 C         1.310777         0.019693         0.083046
 C         2.028173         0.963531         1.176966
 C         3.266342         0.397912         0.526704
 C         3.104969        -1.076833         0.500731
 C         3.228930        -1.139317        -0.982791
 C         2.581197         0.280455        -0.877791
 O         2.218625         1.315801        -1.747082
 O         1.718515        -1.376801         0.606507
 H        -0.873660        -0.532780         0.338782
 H        -0.510309         0.977851        -0.708981
 H        -0.131074        -0.454933        -1.406516
 H         1.899082         2.071196         0.964875
 H         1.936218         0.771852         2.262303
 H         4.319094         0.862930         0.556024
 H         3.697116        -1.656900         1.245229
 H         4.200123        -1.114587        -1.302909
 H         2.736757        -1.899182        -1.577125
 H         3.037802         1.611658        -2.230513
