19
Iteration:  2733
 C        -0.166506        -0.061676        -0.058680
 C         1.224235        -0.038441         0.192114
 C         1.964138         0.894424         1.188507
 C         3.205503         0.447997         0.444201
 C         3.123406        -1.092218         0.449120
 C         3.229844        -1.047104        -1.152312
 C         2.488823         0.324042        -0.876284
 O         2.582093         1.354195        -1.923555
 O         1.687641        -1.343693         0.635417
 H        -0.801501        -0.152403         0.871535
 H        -0.255994         0.991694        -0.377844
 H        -0.624999        -0.750419        -0.737589
 H         1.651762         1.865624         0.890734
 H         1.854704         0.602750         2.265789
 H         4.132019         0.933891         0.633668
 H         3.752647        -1.688106         1.190144
 H         4.216479        -0.624094        -1.548813
 H         2.664733        -1.784240        -1.899142
 H         2.790259         0.850122        -2.726180
