19
Iteration:  4527charge 0 multiplicity 1
 C        -0.214748         0.070252         0.012038
 C         1.236767        -0.041277         0.086930
 C         1.979516         0.912460         1.077191
 C         3.217274         0.437802         0.399925
 C         3.137566        -1.142462         0.445504
 C         3.261942        -1.119580        -1.121329
 C         2.557410         0.252686        -0.918507
 O         2.479241         1.307502        -1.787220
 O         1.742745        -1.275631         0.645089
 H        -0.571534        -0.100029         1.081258
 H        -0.599392         1.089561        -0.365060
 H        -0.693014        -0.730450        -0.469903
 H         1.789076         1.912800         0.783632
 H         1.939796         0.719350         2.155837
 H         4.056199         1.160701         0.340597
 H         3.641333        -1.793620         1.120159
 H         4.272612        -0.813602        -1.589412
 H         3.061184        -2.052589        -1.741461
 H         1.975295         1.194413        -2.629193
