19
Iteration:    31
 C        -0.080412         0.203720        -0.290234
 C         1.294525         0.012959         0.218606
 C         1.959521         0.860008         1.258594
 C         3.227890         0.456997         0.487949
 C         3.127705        -1.147233         0.431503
 C         3.054642        -1.147052        -1.092163
 C         2.557861         0.282398        -0.912393
 O         2.517961         1.164964        -1.977101
 O         1.724843        -1.285601         0.723802
 H        -0.850239        -0.121262         0.464067
 H        -0.240866         1.290040        -0.662528
 H        -0.249295        -0.504363        -1.210298
 H         1.713106         1.953005         1.041608
 H         1.900206         0.502902         2.289275
 H         4.272300         0.905329         0.771050
 H         3.769088        -1.772391         0.989572
 H         4.010885        -1.283235        -1.525470
 H         2.374834        -1.824571        -1.537653
 H         2.246190         2.051651        -1.599804
