19
Iteration:  4011charge 0 multiplicity 1
 C        -0.211019        -0.006537        -0.111199
 C         1.289356        -0.004702         0.186196
 C         2.023594         1.001040         1.172669
 C         3.272683         0.477528         0.451700
 C         3.173083        -1.087993         0.372766
 C         3.125767        -1.124365        -1.105996
 C         2.499211         0.276251        -0.890563
 O         2.397924         1.293729        -1.845121
 O         1.773990        -1.331403         0.662368
 H        -1.020051        -0.153458         0.645270
 H        -0.502170         0.804294        -0.740590
 H        -0.396302        -0.850004        -0.809485
 H         1.929491         2.049707         0.981471
 H         2.048351         0.927216         2.259749
 H         4.273387         0.883073         0.389837
 H         3.797907        -1.676594         1.078682
 H         4.077653        -1.368323        -1.489837
 H         2.504348        -1.974610        -1.529449
 H         2.990132         1.126585        -2.572346
