19
Iteration:   369charge 0 multiplicity 1
 C        -0.192633         0.071310        -0.286034
 C         1.308016         0.124864         0.146513
 C         2.107656         0.976839         1.246502
 C         3.346745         0.282425         0.452253
 C         3.074178        -1.231415         0.425231
 C         3.199623        -1.141941        -1.086345
 C         2.523343         0.253117        -0.860540
 O         2.461222         1.283223        -1.853211
 O         1.622118        -1.183178         0.673423
 H        -0.860559        -0.120212         0.505114
 H        -0.551595         0.929980        -0.892243
 H        -0.305582        -0.837886        -0.877190
 H         2.248947         2.064686         1.172433
 H         1.825683         0.702854         2.291417
 H         4.438187         0.626901         0.615012
 H         3.602351        -1.971687         1.059504
 H         4.222301        -0.832809        -1.443215
 H         2.668214        -1.893311        -1.721162
 H         1.506022         1.249139        -2.090732
