19
Iteration:   815charge 0 multiplicity 1
 C        -0.231294        -0.006658        -0.307474
 C         1.224484         0.007882         0.153381
 C         2.135356         0.981111         1.264176
 C         3.309781         0.460164         0.555542
 C         3.092895        -1.188629         0.461962
 C         3.266967        -1.080222        -1.069969
 C         2.582728         0.317274        -0.912155
 O         2.393215         1.251312        -1.947841
 O         1.603119        -1.301031         0.671684
 H        -0.698472        -0.493341         0.499582
 H        -0.776111         0.918338        -0.686076
 H        -0.440441        -0.733138        -1.089783
 H         1.785847         2.084657         1.117989
 H         2.020435         0.700204         2.419101
 H         4.289799         0.812232         0.687759
 H         3.562101        -1.831866         1.177759
 H         4.403710        -1.042433        -1.292066
 H         2.729013        -1.826527        -1.894442
 H         3.132462         1.851202        -2.076712
