19
Iteration:   713charge 0 multiplicity 1
 C        -0.145871         0.127051        -0.270556
 C         1.303704         0.009016         0.141613
 C         2.048893         0.932486         1.161756
 C         3.295209         0.397938         0.605858
 C         3.107181        -1.188591         0.480167
 C         3.157104        -1.074373        -1.158483
 C         2.587116         0.244485        -0.834550
 O         2.327976         1.168377        -1.861324
 O         1.696499        -1.242706         0.626812
 H        -0.880184         0.231202         0.649403
 H        -0.350546         1.010383        -0.853926
 H        -0.460429        -0.805617        -0.847136
 H         1.896404         2.055380         0.764459
 H         1.981772         0.820758         2.283208
 H         4.351023         0.823947         0.779193
 H         3.635290        -1.996910         1.018990
 H         4.220692        -0.963594        -1.608392
 H         2.565348        -1.794970        -1.816052
 H         2.930936         1.960701        -1.933439
