19
Iteration:  1625
 C        -0.140189         0.032687        -0.328944
 C         1.272929        -0.021820         0.179901
 C         1.870813         0.922675         1.186368
 C         3.220981         0.418394         0.604051
 C         3.177565        -1.111597         0.348431
 C         3.299321        -1.058935        -1.141757
 C         2.540107         0.269820        -0.772324
 O         2.384486         1.262234        -1.798506
 O         1.720973        -1.295211         0.651299
 H        -0.805038         0.138823         0.448409
 H        -0.360688         1.000624        -0.913343
 H        -0.480433        -0.848952        -1.041109
 H         1.887716         2.001568         0.776226
 H         1.528773         0.813534         2.216436
 H         4.236117         0.905651         0.710280
 H         3.814345        -1.758167         0.982453
 H         4.328386        -0.871776        -1.309477
 H         2.806504        -1.869869        -1.685689
 H         2.981463         1.135179        -2.536971
