19
Iteration:  3102
 C        -0.073570         0.084397        -0.169509
 C         1.326734        -0.052860         0.213048
 C         2.021325         0.977856         1.086110
 C         3.284803         0.495449         0.442709
 C         3.113519        -1.191759         0.445773
 C         3.174031        -1.146626        -1.129436
 C         2.444579         0.218463        -0.928565
 O         2.320280         1.281516        -1.856601
 O         1.721254        -1.308366         0.705514
 H        -0.748201        -0.311082         0.509414
 H        -0.236414         1.089281        -0.374368
 H        -0.269110        -0.510262        -1.144745
 H         1.946106         2.042942         1.050157
 H         1.863227         0.721163         2.110171
 H         4.279343         0.924700         0.527425
 H         3.737353        -1.819802         1.100157
 H         4.128232        -0.798402        -1.433029
 H         2.700717        -1.912574        -1.715965
 H         2.956038         1.913456        -1.542958
