19
Iteration:  4436
 C        -0.084414         0.060855        -0.280781
 C         1.368646        -0.029823         0.201939
 C         1.980213         1.024410         1.042063
 C         3.382791         0.404067         0.479534
 C         3.184247        -1.128860         0.405693
 C         3.122613        -1.104611        -1.085813
 C         2.525611         0.239746        -0.882636
 O         2.292930         1.332637        -1.761026
 O         1.732709        -1.348873         0.751068
 H        -0.798436        -0.198472         0.482753
 H        -0.252450         1.095794        -0.505150
 H        -0.300830        -0.587366        -1.216728
 H         1.729584         2.083159         0.700503
 H         1.781468         0.928998         2.122808
 H         4.373732         0.916919         0.428968
 H         3.709885        -1.932292         1.013495
 H         4.055961        -1.124212        -1.660666
 H         2.668595        -2.055967        -1.492083
 H         1.398463         1.080798        -2.072982
