19
Iteration:  2173
 C        -0.137627         0.141214        -0.426773
 C         1.283598         0.005276         0.163697
 C         1.937196         0.879260         1.236179
 C         3.260102         0.425169         0.539352
 C         3.149654        -1.055020         0.465986
 C         3.222018        -1.136874        -1.133604
 C         2.506016         0.210392        -0.876101
 O         2.272743         1.275694        -1.757500
 O         1.812951        -1.311804         0.684904
 H        -0.967683         0.136376         0.236988
 H         0.037727         0.985829        -0.988581
 H        -0.274422        -0.802912        -1.075686
 H         1.791176         1.938066         1.058465
 H         1.949080         0.602088         2.348028
 H         4.244733         0.841010         0.555199
 H         3.905318        -1.739899         1.018721
 H         4.181808        -1.048095        -1.561829
 H         2.602406        -1.890620        -1.550067
 H         3.025853         1.457704        -2.303445
