19
Iteration:  1596
 C        -0.144630         0.052273        -0.192366
 C         1.270332        -0.097155         0.074796
 C         1.900383         0.902036         1.014515
 C         3.240543         0.478387         0.505851
 C         3.152169        -1.146719         0.528686
 C         3.349557        -1.109867        -1.025605
 C         2.574248         0.243756        -0.848261
 O         2.366966         1.446938        -1.779019
 O         1.666845        -1.403180         0.584555
 H        -0.744340         0.089498         0.802254
 H        -0.431979         0.915367        -0.649152
 H        -0.731120        -0.680743        -0.873420
 H         1.794040         1.912467         0.644572
 H         1.562365         0.818640         2.079938
 H         4.230150         1.009926         0.454030
 H         3.669745        -1.667186         1.323094
 H         4.432385        -0.946058        -1.288241
 H         2.877697        -1.948141        -1.551117
 H         3.211098         1.456151        -2.328820
