19
Iteration:  2508charge 0 multiplicity 1
 C        -0.132137        -0.057784        -0.370361
 C         1.368294        -0.023015         0.236824
 C         1.992500         1.032940         1.251778
 C         3.231862         0.421323         0.481654
 C         3.089719        -1.183091         0.432966
 C         3.222114        -0.994914        -1.159601
 C         2.563709         0.284661        -0.860327
 O         2.391544         1.294857        -1.808602
 O         1.741757        -1.326953         0.703317
 H        -0.979595        -0.053421         0.268135
 H        -0.296923         0.928535        -0.952243
 H        -0.198743        -0.843528        -1.063206
 H         1.742802         2.046143         0.980332
 H         1.842859         0.850513         2.340507
 H         4.192416         0.845720         0.613192
 H         3.695794        -1.838667         1.103778
 H         4.280032        -0.962902        -1.588955
 H         2.509937        -1.689867        -1.706256
 H         1.580144         1.005761        -2.265265
