19
Iteration:  4227charge 0 multiplicity 1
 C        -0.264829        -0.015152        -0.009999
 C         1.270120         0.047779         0.149297
 C         2.051795         0.937622         1.174448
 C         3.233190         0.430347         0.452050
 C         3.274835        -1.089822         0.402039
 C         3.274663        -1.084220        -1.038484
 C         2.546503         0.300275        -0.887926
 O         2.374160         1.144757        -1.944896
 O         1.645390        -1.256668         0.533970
 H        -0.693257        -0.176273         0.952815
 H        -0.697944         0.819429        -0.436866
 H        -0.706723        -0.744105        -0.766247
 H         1.950612         1.998280         1.015678
 H         1.879322         0.747934         2.262029
 H         4.230848         0.798590         0.458104
 H         3.954024        -1.712056         1.080375
 H         4.240205        -0.798181        -1.514297
 H         2.891061        -2.009043        -1.559123
 H         2.527801         2.074057        -1.633630
