19
Iteration:  1338charge 0 multiplicity 1
 C        -0.062954         0.075159        -0.429599
 C         1.337634        -0.072171         0.164924
 C         1.876882         0.912349         1.178712
 C         3.290917         0.532842         0.482953
 C         3.160722        -1.209253         0.434268
 C         3.241586        -1.047567        -1.146530
 C         2.477224         0.251893        -0.814611
 O         2.312542         1.228255        -1.779508
 O         1.703803        -1.284779         0.756290
 H        -0.834722        -0.250003         0.314891
 H        -0.134811         1.231118        -0.547922
 H        -0.140512        -0.323349        -1.390167
 H         1.643304         1.963528         1.019255
 H         1.672664         0.618484         2.258959
 H         4.213369         1.065337         0.729190
 H         3.773043        -1.921890         1.039068
 H         4.251680        -0.884342        -1.572804
 H         2.733885        -1.849831        -1.679880
 H         3.214749         1.466339        -2.041434
