19
Iteration:   784charge 0 multiplicity 1
 C        -0.083715         0.071437        -0.231606
 C         1.285903         0.002324         0.120614
 C         1.910993         1.006282         1.197258
 C         3.214650         0.450334         0.585458
 C         3.176136        -1.186360         0.413596
 C         3.115096        -1.122318        -1.158842
 C         2.469733         0.210765        -0.853334
 O         2.575247         1.208944        -1.897777
 O         1.743956        -1.268118         0.664237
 H        -0.598604        -0.360688         0.562706
 H        -0.427021         1.129467        -0.353271
 H        -0.222531        -0.533136        -1.072280
 H         1.694852         2.002351         0.924953
 H         1.613161         0.791790         2.245564
 H         4.061776         1.016974         0.698125
 H         3.641168        -1.878992         1.101787
 H         4.125965        -1.028806        -1.628456
 H         2.428466        -1.889413        -1.773111
 H         2.047014         2.036431        -1.657610
