19
Iteration:  1321charge 0 multiplicity 1
 C        -0.134368         0.125468        -0.383114
 C         1.273892        -0.014085         0.196086
 C         1.870273         0.932596         1.206847
 C         3.172042         0.396449         0.631791
 C         3.156417        -1.120009         0.388658
 C         3.221650        -1.034642        -1.177524
 C         2.581981         0.268126        -0.824285
 O         2.362177         1.194602        -1.875078
 O         1.811401        -1.341652         0.759139
 H        -1.009313        -0.105622         0.307539
 H        -0.219543         1.161475        -0.659503
 H        -0.161501        -0.703194        -1.194911
 H         1.733372         1.973126         0.868904
 H         1.560679         0.806876         2.221643
 H         4.155759         0.867493         0.671237
 H         3.845103        -1.820302         0.831526
 H         4.330266        -0.827382        -1.365342
 H         2.655251        -1.743612        -1.823482
 H         3.153125         1.624939        -2.262630
