19
Iteration:  2043
 C        -0.163593         0.012216        -0.167429
 C         1.317140        -0.042093         0.047604
 C         1.955281         0.990984         1.076351
 C         3.236733         0.383040         0.534981
 C         3.151172        -1.121399         0.466182
 C         3.317575        -1.037720        -1.109924
 C         2.511151         0.253301        -0.849452
 O         2.506784         1.268562        -1.805376
 O         1.635580        -1.297340         0.619641
 H        -0.545373        -0.268094         0.770027
 H        -0.776613         0.864767        -0.473099
 H        -0.414982        -0.867698        -1.034215
 H         1.769602         1.997789         0.844114
 H         1.652759         0.846241         2.113125
 H         4.144784         0.945541         0.534325
 H         3.620369        -1.840290         1.222756
 H         4.324875        -0.801861        -1.452934
 H         2.927654        -1.864368        -1.701583
 H         1.648103         1.721572        -1.641263
