19
Iteration:  2257charge 0 multiplicity 1
 C        -0.130391         0.033240        -0.131178
 C         1.252643        -0.136411         0.095590
 C         1.851233         0.938087         1.039289
 C         3.158434         0.515590         0.475127
 C         3.170490        -1.035156         0.413248
 C         3.251648        -1.149169        -1.078101
 C         2.516241         0.203986        -0.932558
 O         2.619584         1.385595        -1.725821
 O         1.692753        -1.370634         0.626488
 H        -0.683566        -0.372063         0.896272
 H        -0.446344         1.081106        -0.127141
 H        -0.461945        -0.387166        -1.004150
 H         1.626743         1.970349         0.790440
 H         1.872131         0.843812         2.147158
 H         4.092155         1.038481         0.720425
 H         3.836831        -1.573769         1.120088
 H         4.350280        -1.040532        -1.486640
 H         2.765647        -2.021190        -1.641469
 H         1.741742         1.312520        -2.212283
