19
Iteration:  1417
 C        -0.239878         0.054783        -0.256746
 C         1.251816        -0.122467         0.180145
 C         1.870558         0.924416         1.196204
 C         3.243388         0.492247         0.578070
 C         3.164617        -1.122122         0.449197
 C         3.217075        -1.083201        -1.105082
 C         2.545604         0.262056        -0.903559
 O         2.498855         1.333893        -1.891675
 O         1.734122        -1.356743         0.660292
 H        -0.943425         0.018166         0.451919
 H        -0.226613         1.057413        -0.866063
 H        -0.420397        -0.841096        -0.952696
 H         1.573701         1.944161         0.900268
 H         1.932145         0.820813         2.293852
 H         4.130870         1.079823         0.652960
 H         3.746254        -1.776394         1.101125
 H         4.282666        -0.855888        -1.517028
 H         2.709407        -1.946331        -1.577263
 H         3.372760         1.527495        -2.248483
