19
Iteration:  3960
 C        -0.047960         0.077295        -0.347807
 C         1.380064         0.037423         0.225028
 C         2.072932         1.050766         1.169257
 C         3.423695         0.422183         0.546437
 C         3.177191        -1.179449         0.418944
 C         3.241956        -1.100450        -1.117689
 C         2.502544         0.238644        -0.850044
 O         2.038678         1.140671        -1.790507
 O         1.675207        -1.300319         0.649884
 H        -0.851085        -0.031119         0.457111
 H        -0.271575         1.114356        -0.563932
 H        -0.445184        -0.510449        -1.094453
 H         1.862354         2.116541         0.729915
 H         2.145495         1.135792         2.253144
 H         4.436415         0.824661         0.660548
 H         3.710933        -1.928833         1.045551
 H         4.157723        -1.049388        -1.724411
 H         2.679075        -1.909250        -1.645146
 H         2.664542         1.760690        -2.199056
