19
Iteration:   403
 C        -0.122549         0.214912        -0.213311
 C         1.335661        -0.077550         0.107773
 C         1.952281         0.984758         1.050743
 C         3.236797         0.396251         0.415435
 C         3.192518        -1.154780         0.473643
 C         3.119684        -1.105467        -1.135862
 C         2.575596         0.190519        -0.857408
 O         2.520426         1.268535        -1.721423
 O         1.653596        -1.340254         0.721786
 H        -0.662670         0.142785         0.661278
 H        -0.095573         1.327253        -0.322745
 H        -0.530543        -0.190051        -1.082391
 H         1.899472         1.992346         0.647289
 H         1.619700         0.886184         2.116481
 H         4.279939         0.796792         0.583873
 H         3.719296        -1.908262         1.150002
 H         4.034683        -1.101212        -1.919595
 H         2.413916        -1.904429        -1.611623
 H         1.593130         1.250915        -2.120924
