19
Iteration:  3255charge 0 multiplicity 1
 C        -0.239053         0.075761        -0.085720
 C         1.290094         0.003711         0.114591
 C         2.027564         0.927962         1.218457
 C         3.305897         0.373898         0.436440
 C         3.104830        -1.150264         0.422912
 C         3.226038        -1.121176        -1.149847
 C         2.483062         0.248503        -0.923475
 O         2.493452         1.274351        -1.961905
 O         1.733871        -1.221617         0.735201
 H        -0.684620        -0.341299         0.777376
 H        -0.732485         1.041296        -0.231168
 H        -0.547845        -0.590358        -1.032341
 H         1.924668         1.984999         1.107184
 H         1.840928         0.611805         2.192308
 H         4.236003         0.813565         0.706193
 H         3.710046        -1.984776         0.922433
 H         4.254177        -0.955095        -1.540331
 H         2.862939        -1.954481        -1.731491
 H         1.652469         1.766569        -1.756207
