19
Iteration:  1139charge 0 multiplicity 1
 C        -0.178369         0.060952        -0.319156
 C         1.286246        -0.051477         0.049755
 C         1.946899         0.849299         1.211916
 C         3.173677         0.431530         0.509882
 C         3.135540        -1.120195         0.474145
 C         3.282833        -1.091087        -1.033549
 C         2.590396         0.297253        -0.876888
 O         2.370505         1.332526        -1.874559
 O         1.700368        -1.284183         0.692746
 H        -0.772508        -0.254762         0.569755
 H        -0.270225         1.058135        -0.536257
 H        -0.502812        -0.556538        -1.142346
 H         1.775893         1.962596         0.941932
 H         1.898626         0.521778         2.258416
 H         4.241279         0.851711         0.786526
 H         3.722764        -1.640755         1.210277
 H         4.407180        -1.059298        -1.332179
 H         2.803767        -2.056418        -1.491771
 H         3.233468         1.422410        -2.357364
