19
Iteration:  1396charge 0 multiplicity 1
 C        -0.101956        -0.013668        -0.286070
 C         1.307929         0.031317         0.082516
 C         1.930781         0.978583         1.094945
 C         3.242415         0.402767         0.528024
 C         3.068243        -1.191991         0.447801
 C         3.259234        -0.969132        -1.109309
 C         2.540759         0.272497        -0.848100
 O         2.367686         1.245323        -1.759985
 O         1.691588        -1.320104         0.696167
 H        -0.643199        -0.270767         0.533632
 H        -0.441125         1.005433        -0.640006
 H        -0.385016        -0.838065        -1.052282
 H         2.023955         2.039585         0.801396
 H         1.482277         0.857801         2.088096
 H         4.245588         0.766121         0.724414
 H         3.793401        -1.780873         0.995593
 H         4.464095        -0.887813        -1.191948
 H         2.830460        -1.749276        -1.813633
 H         3.229778         1.463204        -2.144599
