19
Iteration:  3217
 C        -0.196688         0.033021         0.100281
 C         1.290705        -0.004270         0.168228
 C         1.982409         1.079538         1.044722
 C         3.226949         0.486850         0.507492
 C         3.101914        -1.194813         0.379421
 C         3.221659        -1.077344        -1.118343
 C         2.528624         0.201265        -0.888098
 O         2.591240         1.209406        -1.873454
 O         1.675488        -1.332796         0.479834
 H        -0.336716        -0.262674         1.194685
 H        -0.671918         0.996579        -0.237141
 H        -0.618532        -0.780108        -0.438074
 H         1.750687         2.173802         0.663756
 H         1.897930         1.130213         2.256341
 H         4.332716         0.740313         0.579145
 H         3.474135        -1.911534         1.064877
 H         4.168424        -0.706018        -1.517255
 H         2.610974        -1.875820        -1.640964
 H         1.793793         1.706856        -1.772553
