19
Iteration:    60charge 0 multiplicity 1
 C        -0.183665         0.136883        -0.300875
 C         1.334381         0.088725         0.154624
 C         2.076426         1.065579         1.187440
 C         3.306551         0.345631         0.524464
 C         3.123441        -1.309687         0.469767
 C         3.195433        -1.068359        -1.077736
 C         2.502841         0.254161        -0.853805
 O         2.431572         1.148068        -1.891263
 O         1.610812        -1.264139         0.654281
 H        -0.639528        -0.252778         0.582802
 H        -0.633171         1.045991        -0.589687
 H        -0.359681        -0.607803        -1.048806
 H         1.921599         2.082826         0.804288
 H         1.853570         1.003065         2.270713
 H         4.386509         0.555365         0.455507
 H         3.683883        -2.072635         1.072758
 H         4.336684        -0.782130        -1.321371
 H         2.823149        -1.752704        -1.970294
 H         2.208339         2.011041        -1.519122
