19
Iteration:   188
 C        -0.074652         0.168282        -0.221673
 C         1.370085         0.053667         0.175184
 C         2.015976         1.077470         1.083672
 C         3.288266         0.403271         0.507975
 C         3.031766        -1.202066         0.414012
 C         3.209997        -1.174504        -1.099481
 C         2.565175         0.190643        -0.883017
 O         2.312264         1.192144        -1.793940
 O         1.647895        -1.317909         0.644614
 H        -0.857744         0.015025         0.620758
 H        -0.321140         1.180512        -0.650182
 H        -0.248542        -0.553867        -1.034211
 H         1.980332         2.110303         0.823077
 H         1.784096         1.016780         2.174755
 H         4.296462         0.679565         0.646503
 H         3.675212        -1.978053         0.962071
 H         4.184862        -1.087065        -1.337419
 H         2.725562        -1.846897        -1.713421
 H         3.057273         1.802175        -1.630728
