19
Iteration:  3287charge 0 multiplicity 1
 C        -0.069684         0.134207        -0.328131
 C         1.338253        -0.069529         0.235659
 C         2.139385         0.998646         1.283347
 C         3.324845         0.484129         0.480421
 C         3.163803        -1.122957         0.462075
 C         3.073094        -1.081966        -1.156570
 C         2.467996         0.278329        -0.850138
 O         2.289599         1.126640        -1.888151
 O         1.712572        -1.336855         0.653378
 H        -0.795021        -0.200116         0.289613
 H        -0.145625         1.120889        -0.692749
 H        -0.173893        -0.497483        -1.353753
 H         1.874168         2.090753         1.096378
 H         2.045176         0.884970         2.369489
 H         4.291796         0.868488         0.733583
 H         3.870085        -1.930257         0.829183
 H         4.016511        -0.963563        -1.749362
 H         2.396604        -1.870081        -1.479256
 H         1.859356         1.934966        -1.612916
