19
Iteration:  1649
 C        -0.058519        -0.034342        -0.441891
 C         1.334697         0.087060         0.133735
 C         2.011432         0.888452         1.297014
 C         3.298419         0.460350         0.629515
 C         3.078778        -1.165068         0.505857
 C         3.194560        -0.983771        -1.051559
 C         2.529878         0.275861        -0.865172
 O         2.280296         1.279824        -1.908130
 O         1.692916        -1.311529         0.627199
 H        -0.828489        -0.113263         0.373945
 H        -0.414774         0.770691        -1.011616
 H        -0.171857        -0.990970        -1.194590
 H         1.813442         1.990997         1.270292
 H         1.999443         0.408408         2.296645
 H         4.388009         0.694126         0.875787
 H         3.677773        -1.878016         1.070119
 H         4.148564        -0.820050        -1.280682
 H         2.677246        -1.747425        -1.586122
 H         2.986766         1.390595        -2.614113
