19
Iteration:  4685
 C        -0.213015         0.006213        -0.041742
 C         1.307354         0.002838         0.194186
 C         2.026995         0.964709         1.163100
 C         3.308234         0.433165         0.418098
 C         3.127930        -1.098557         0.472590
 C         3.220912        -1.038482        -1.078598
 C         2.467735         0.258750        -0.923702
 O         2.484150         1.238968        -1.925342
 O         1.709447        -1.263014         0.588517
 H        -0.752795        -0.116236         0.843582
 H        -0.582106         0.820401        -0.557723
 H        -0.231697        -0.985892        -0.624896
 H         1.545264         1.990347         1.004308
 H         2.055551         0.739751         2.248324
 H         4.323253         0.706932         0.609507
 H         3.495666        -1.944037         1.042903
 H         4.182405        -0.693973        -1.367406
 H         2.746199        -1.917714        -1.606505
 H         1.701337         0.982800        -2.462705
