19
Iteration:   419charge 0 multiplicity 1
 C        -0.197944         0.297748        -0.204087
 C         1.279609         0.008499         0.093209
 C         1.966287         0.947156         1.056535
 C         3.330405         0.359498         0.535392
 C         3.101696        -1.204827         0.407470
 C         3.196845        -1.191789        -1.147017
 C         2.477401         0.162616        -0.850139
 O         2.492429         1.284489        -1.750794
 O         1.771830        -1.290571         0.712324
 H        -0.829500        -0.121193         0.657837
 H        -0.431039         1.331474        -0.414005
 H        -0.558054        -0.364299        -1.087672
 H         1.811497         2.041045         0.883093
 H         1.733862         0.953909         2.123518
 H         4.265045         0.941646         0.554232
 H         3.753312        -1.817177         0.972726
 H         4.227369        -0.999338        -1.417778
 H         2.628064        -1.964723        -1.675672
 H         1.855328         1.080147        -2.478201
