19
Iteration:   427charge 0 multiplicity 1
 C        -0.229834         0.236193        -0.208086
 C         1.288262         0.033544         0.161249
 C         2.035365         0.978446         1.146025
 C         3.286048         0.393609         0.499336
 C         3.121840        -1.229503         0.380483
 C         3.201136        -1.211379        -1.067383
 C         2.508485         0.178035        -0.921855
 O         2.466199         1.315521        -1.800070
 O         1.704186        -1.281917         0.687777
 H        -0.834470        -0.041971         0.646299
 H        -0.489851         1.236897        -0.422783
 H        -0.370589        -0.351540        -1.039695
 H         2.056960         2.024055         0.810483
 H         1.827821         0.757184         2.224021
 H         4.162699         0.876535         0.741247
 H         3.642761        -2.019890         0.963297
 H         4.364921        -1.016560        -1.345422
 H         2.890598        -2.029981        -1.849981
 H         2.015857         1.016284        -2.610172
