19
Iteration:  1929charge 0 multiplicity 1
 C        -0.179296        -0.028692        -0.165998
 C         1.326689        -0.005513         0.091544
 C         1.923190         1.044913         1.081256
 C         3.280793         0.381978         0.528806
 C         3.059822        -1.231443         0.413394
 C         3.439846        -1.059124        -1.098730
 C         2.600301         0.269016        -0.850092
 O         2.330507         1.297877        -1.712047
 O         1.608955        -1.278660         0.588745
 H        -0.699318        -0.375361         0.857061
 H        -0.533788         0.973622        -0.607253
 H        -0.264120        -0.766500        -1.012000
 H         2.084232         2.063218         0.603388
 H         1.516273         1.089940         2.097841
 H         4.146205         1.057386         0.785103
 H         3.573354        -1.898421         1.071369
 H         4.392428        -0.730833        -1.273106
 H         3.150076        -1.842131        -1.733865
 H         2.706535         1.201516        -2.620551
