19
Iteration:  2020charge 0 multiplicity 1
 C        -0.166548        -0.009410        -0.272595
 C         1.322900        -0.010377         0.111168
 C         1.971203         1.006262         1.119987
 C         3.292942         0.410043         0.520012
 C         3.105517        -1.171618         0.469182
 C         3.297635        -1.121902        -1.056644
 C         2.632519         0.285317        -0.866693
 O         2.269410         1.284368        -1.837926
 O         1.706871        -1.280071         0.618159
 H        -0.907409        -0.083935         0.531445
 H        -0.423270         0.863278        -0.819363
 H        -0.233724        -0.804018        -1.202762
 H         1.779716         2.026840         0.885054
 H         1.800602         0.915851         2.199250
 H         4.287033         0.712726         0.827435
 H         3.553958        -2.011041         1.044721
 H         4.327390        -0.903165        -1.175648
 H         3.053438        -1.931492        -1.706080
 H         2.192211         2.019533        -1.173668
