19
Iteration:  3908
 C        -0.209174         0.075827        -0.110101
 C         1.318816        -0.046681         0.188593
 C         2.022943         0.948097         1.139788
 C         3.239755         0.466274         0.440940
 C         3.127094        -1.129976         0.424978
 C         3.175872        -1.101224        -1.182393
 C         2.491788         0.241146        -0.888355
 O         2.403524         1.247622        -1.889978
 O         1.791532        -1.282176         0.770344
 H        -0.950729         0.033762         0.722757
 H        -0.608200         1.113835        -0.376458
 H        -0.672891        -0.851892        -0.769410
 H         1.934542         1.993972         0.883037
 H         1.766800         0.529638         2.054733
 H         4.213023         1.011831         0.528547
 H         3.822741        -1.814712         0.889273
 H         4.184601        -0.817810        -1.530470
 H         2.619771        -1.685485        -1.868348
 H         3.092230         1.131810        -2.582044
