19
Iteration:  1560
 C        -0.180332        -0.054279        -0.288254
 C         1.303976         0.077983         0.094955
 C         1.902582         0.947915         1.170069
 C         3.304091         0.451922         0.568801
 C         3.117296        -1.187397         0.443098
 C         3.292579        -0.978404        -1.101010
 C         2.569243         0.265160        -0.792773
 O         2.394665         1.182923        -1.848385
 O         1.622036        -1.297723         0.613376
 H        -0.583056        -0.319353         0.634259
 H        -0.470897         0.994386        -0.619524
 H        -0.250288        -1.013577        -1.023123
 H         1.824751         2.080953         0.966623
 H         1.768261         0.785734         2.231783
 H         4.283063         1.025983         0.478514
 H         3.714626        -1.843456         1.124529
 H         4.237596        -0.780934        -1.357623
 H         2.797338        -1.597823        -1.832302
 H         3.215419         1.759394        -1.790517
