19
Iteration:  3903charge 0 multiplicity 1
 C        -0.242904         0.023887        -0.094970
 C         1.279666        -0.001763         0.200515
 C         1.993691         0.964306         1.108523
 C         3.269300         0.431121         0.428864
 C         3.134777        -1.107054         0.400882
 C         3.143899        -1.066798        -1.137388
 C         2.489598         0.271643        -0.906516
 O         2.445512         1.251222        -1.889352
 O         1.803803        -1.331388         0.743752
 H        -0.821625         0.017201         0.905460
 H        -0.462673         1.011000        -0.463389
 H        -0.602868        -0.678549        -0.733473
 H         1.863238         2.036097         0.825262
 H         1.870753         0.664046         2.221079
 H         4.292947         0.769533         0.528113
 H         3.855681        -1.718992         0.990125
 H         4.152694        -0.784755        -1.444641
 H         2.461839        -1.746093        -1.732678
 H         3.111121         1.062126        -2.570700
