19
Iteration:  2595
 C        -0.225761        -0.019105        -0.100674
 C         1.253934         0.024397         0.090938
 C         1.966000         0.980882         1.111054
 C         3.254761         0.354402         0.529948
 C         3.093733        -1.135053         0.398924
 C         3.333664        -1.066671        -1.116567
 C         2.545912         0.313568        -0.892448
 O         2.404461         1.296053        -1.784051
 O         1.740901        -1.307086         0.626870
 H        -0.668683        -0.390544         0.781406
 H        -0.589435         1.089841        -0.427686
 H        -0.603958        -0.641495        -0.909913
 H         1.820604         2.033002         0.851279
 H         1.510764         0.725358         2.102765
 H         4.190793         0.835610         0.666572
 H         3.695614        -1.707672         1.114367
 H         4.351308        -0.744002        -1.308037
 H         3.130060        -1.842990        -1.754924
 H         2.696486         0.926928        -2.660256
