19
Iteration:  1118
 C        -0.189781         0.007741        -0.242187
 C         1.267746         0.052521         0.224730
 C         1.925613         0.968793         1.238764
 C         3.241720         0.521437         0.551798
 C         3.109562        -1.150587         0.432260
 C         3.298796        -1.088472        -1.074648
 C         2.580166         0.226833        -0.891061
 O         2.441527         1.236466        -1.897915
 O         1.630052        -1.323781         0.564224
 H        -0.805970        -0.237784         0.600372
 H        -0.342972         0.834673        -0.911143
 H        -0.149041        -0.919979        -0.789818
 H         1.609291         2.092562         1.075292
 H         1.687539         0.582602         2.216499
 H         4.368360         0.925372         0.620341
 H         3.623438        -1.898042         1.028532
 H         4.421123        -0.815073        -1.392671
 H         2.889051        -1.868038        -1.876201
 H         3.265918         1.775635        -1.917275
