19
Iteration:  3676
 C        -0.163562         0.021022        -0.115234
 C         1.320662         0.022479         0.181905
 C         2.016832         1.004937         1.167451
 C         3.264563         0.367866         0.530816
 C         3.144863        -1.142481         0.444732
 C         3.216860        -1.096583        -1.114794
 C         2.487124         0.266416        -0.893121
 O         2.359299         1.203052        -1.914093
 O         1.776765        -1.224351         0.593437
 H        -0.649751        -0.256562         0.857780
 H        -0.393192         1.020287        -0.351446
 H        -0.381490        -0.722548        -0.794518
 H         2.065804         1.992769         0.724789
 H         1.705607         1.063596         2.159328
 H         4.291660         0.760765         0.580685
 H         3.708589        -1.823747         1.130499
 H         4.249230        -0.890551        -1.495213
 H         2.850322        -1.932112        -1.703046
 H         1.458617         1.339506        -2.210173
