19
Iteration:  1635
 C        -0.161616         0.018256        -0.370113
 C         1.282014         0.011012         0.159561
 C         1.946861         0.892755         1.248485
 C         3.280382         0.371030         0.620326
 C         3.167694        -1.156675         0.444086
 C         3.287962        -1.062044        -1.102426
 C         2.507862         0.382477        -0.829361
 O         2.324732         1.283193        -1.877343
 O         1.710457        -1.278029         0.659035
 H        -0.887756        -0.097426         0.328987
 H        -0.163095         0.947979        -1.062212
 H        -0.086669        -0.931168        -0.946547
 H         1.858996         2.027648         1.034199
 H         1.512682         0.688910         2.218718
 H         4.187167         0.992667         0.779993
 H         3.636506        -1.958092         1.052388
 H         4.314601        -0.859431        -1.561885
 H         2.818393        -1.846883        -1.756246
 H         3.032005         1.010396        -2.441561
