19
Iteration:  1341charge 0 multiplicity 1
 C        -0.075650         0.081166        -0.442516
 C         1.348826        -0.070908         0.156469
 C         1.914115         0.919734         1.175731
 C         3.284556         0.541377         0.480108
 C         3.156777        -1.203430         0.479151
 C         3.220592        -1.056841        -1.131786
 C         2.477790         0.236098        -0.812315
 O         2.301867         1.247727        -1.773333
 O         1.703616        -1.293501         0.731612
 H        -0.698153        -0.265252         0.255229
 H        -0.171254         1.205526        -0.462543
 H        -0.148361        -0.442411        -1.408380
 H         1.599313         1.934875         1.028555
 H         1.717120         0.598483         2.204142
 H         4.224333         0.986807         0.678130
 H         3.753608        -1.933506         1.005535
 H         4.328046        -0.810644        -1.550729
 H         2.703924        -1.911873        -1.630683
 H         3.196967         1.535712        -2.110185
