19
Iteration:  4585
 C        -0.124532        -0.033884        -0.189377
 C         1.339908         0.022608         0.132564
 C         1.986512         0.971332         1.131101
 C         3.293758         0.380602         0.534937
 C         3.150510        -1.161920         0.378286
 C         3.123376        -1.015716        -1.136919
 C         2.520466         0.333782        -0.876634
 O         2.397960         1.237967        -1.872443
 O         1.725831        -1.253805         0.743290
 H        -0.229282        -0.264569         0.884333
 H        -0.588388         0.936117        -0.460821
 H        -0.372170        -0.846963        -0.904319
 H         1.905997         2.073018         0.974248
 H         1.790246         0.763410         2.224237
 H         4.301661         0.777029         0.737176
 H         3.909393        -1.905215         0.900223
 H         4.177596        -1.050421        -1.567946
 H         2.388206        -1.729149        -1.622448
 H         1.785311         1.078159        -2.591366
