19
Iteration:  3227charge 0 multiplicity 1
 C        -0.182383         0.028047         0.105921
 C         1.302272        -0.022723         0.160323
 C         1.967085         1.056912         1.042829
 C         3.302202         0.405762         0.472893
 C         3.048220        -1.167647         0.414684
 C         3.210826        -1.031982        -1.144701
 C         2.610481         0.290274        -0.833333
 O         2.558068         1.224429        -1.924281
 O         1.656375        -1.356062         0.533413
 H        -0.680185        -0.318864         1.149915
 H        -0.766218         1.006725        -0.018856
 H        -0.420812        -0.714326        -0.530088
 H         1.833743         1.953629         0.331670
 H         1.620208         1.278447         2.184907
 H         4.296969         0.800658         0.804898
 H         3.538158        -1.968131         0.980087
 H         4.258641        -1.026936        -1.486861
 H         2.612519        -1.735890        -1.778581
 H         1.709518         1.657271        -1.824822
