19
Iteration:    13charge 0 multiplicity 1
 C        -0.038257         0.116992        -0.260479
 C         1.344030         0.047212         0.126681
 C         1.890473         0.995505         1.237652
 C         3.376934         0.450432         0.494774
 C         3.091618        -1.176464         0.484792
 C         3.130081        -1.167386        -1.099730
 C         2.492403         0.248635        -0.839477
 O         2.498124         1.226827        -1.980144
 O         1.635700        -1.350889         0.707491
 H        -0.638228         0.090378         0.632473
 H        -0.094583         1.139052        -0.526054
 H        -0.380776        -0.436908        -1.029958
 H         1.741158         2.033392         1.249670
 H         1.705470         0.568963         2.236550
 H         4.321394         0.691391         0.239237
 H         3.654254        -1.981895         1.060739
 H         4.079900        -0.917174        -1.755514
 H         2.446309        -1.987795        -1.587538
 H         2.106764         2.133934        -1.697243
