19
Iteration:  2166charge 0 multiplicity 1
 C        -0.102265         0.156480        -0.408013
 C         1.281527        -0.030514         0.159724
 C         1.918691         0.939232         1.193290
 C         3.264026         0.431309         0.512171
 C         3.181280        -1.109290         0.471564
 C         3.249435        -1.152402        -1.175525
 C         2.497134         0.214733        -0.804721
 O         2.223322         1.274473        -1.742229
 O         1.803593        -1.323037         0.710994
 H        -0.994333         0.267060         0.185053
 H        -0.075207         1.136702        -1.138999
 H        -0.210493        -0.671820        -1.251893
 H         1.881676         2.038443         1.107976
 H         1.772849         0.494727         2.142652
 H         4.321488         0.781117         0.397524
 H         3.833644        -1.640912         1.130589
 H         4.281528        -1.101211        -1.572303
 H         2.735298        -2.022428        -1.641416
 H         3.061881         1.632303        -2.036636
