19
Iteration:  1564
 C        -0.192218        -0.040756        -0.269897
 C         1.291400         0.078398         0.079771
 C         1.915184         0.970941         1.140305
 C         3.273799         0.466238         0.589180
 C         3.104575        -1.201658         0.440241
 C         3.317771        -1.015795        -1.113354
 C         2.586413         0.244192        -0.786188
 O         2.380725         1.215326        -1.845837
 O         1.653517        -1.289732         0.603427
 H        -0.720112        -0.341861         0.731290
 H        -0.523621         0.872194        -0.620596
 H        -0.359907        -0.929223        -0.932514
 H         1.888106         2.041435         1.056680
 H         1.695276         0.737822         2.203662
 H         4.263245         0.985305         0.547601
 H         3.607896        -1.792910         1.191963
 H         4.449456        -0.841265        -1.454301
 H         2.919435        -1.742495        -1.868783
 H         3.187706         1.715420        -1.748195
