19
Iteration:  1579
 C        -0.237895        -0.010642        -0.194506
 C         1.286537        -0.041431         0.061903
 C         1.919713         0.986981         1.137259
 C         3.214799         0.394903         0.555120
 C         3.111912        -1.113167         0.465639
 C         3.388453        -1.157745        -1.054282
 C         2.583125         0.283098        -0.966085
 O         2.370626         1.326168        -1.780659
 O         1.712061        -1.277206         0.583805
 H        -0.750163        -0.115117         0.755078
 H        -0.539874         1.048634        -0.686573
 H        -0.429751        -0.802871        -0.838025
 H         1.686453         2.011161         0.791591
 H         1.626092         0.755874         2.180658
 H         4.131897         0.728413         0.967929
 H         3.652069        -1.911190         0.998456
 H         4.485789        -0.881710        -1.197140
 H         2.973551        -2.031291        -1.591830
 H         3.163248         1.845607        -2.102642
