19
Iteration:  1090
 C        -0.224677        -0.021885        -0.268711
 C         1.248363        -0.039844         0.089980
 C         1.933339         0.968855         1.087255
 C         3.317276         0.378957         0.649633
 C         3.119322        -1.146165         0.464241
 C         3.214571        -1.022255        -1.074081
 C         2.567619         0.276616        -0.844236
 O         2.455593         1.288839        -1.889706
 O         1.733995        -1.312669         0.639015
 H        -0.787163         0.134452         0.690388
 H        -0.270323         0.938884        -0.962599
 H        -0.682644        -0.967965        -0.609519
 H         1.946759         1.936017         0.669047
 H         1.480250         0.791336         2.104074
 H         4.280409         0.689044         0.729031
 H         3.672905        -1.920564         1.059857
 H         4.184746        -0.861011        -1.375462
 H         2.736195        -1.700437        -1.683124
 H         2.823649         2.140206        -1.669703
