19
Iteration:  4188
 C        -0.175904         0.004132        -0.012390
 C         1.262676        -0.104555         0.137156
 C         1.899592         0.947649         1.126213
 C         3.274431         0.427893         0.415673
 C         3.153695        -1.100555         0.392470
 C         3.214177        -1.045779        -1.157262
 C         2.570900         0.313843        -0.934400
 O         2.409736         1.291926        -1.931563
 O         1.723696        -1.359684         0.785462
 H        -0.754495         0.062183         1.023269
 H        -0.199228         1.071247        -0.536668
 H        -0.559876        -0.785235        -0.632796
 H         1.719718         1.953993         0.634292
 H         1.777146         0.806106         2.186101
 H         4.259140         0.975256         0.611085
 H         3.759877        -1.867587         0.938161
 H         4.264837        -0.866579        -1.402699
 H         2.578873        -1.848930        -1.599233
 H         3.147144         1.800658        -2.301734
