19
Iteration:  2280charge 0 multiplicity 1
 C        -0.216612         0.039989        -0.296789
 C         1.277561        -0.026184         0.126442
 C         1.884689         0.944199         1.135795
 C         3.287609         0.446643         0.533694
 C         3.163834        -1.222151         0.460998
 C         3.241684        -1.037192        -1.089128
 C         2.526799         0.275655        -0.870302
 O         2.477147         1.325917        -1.808523
 O         1.787796        -1.316294         0.659423
 H        -0.837470        -0.414228         0.641287
 H        -0.626841         0.996151        -0.430639
 H        -0.332577        -0.548901        -1.166590
 H         1.859010         1.973887         0.832387
 H         1.591475         0.926858         2.228532
 H         4.278242         0.826568         0.688116
 H         3.800187        -1.838985         1.162122
 H         4.320191        -1.037827        -1.508854
 H         2.664493        -1.811405        -1.721546
 H         1.594088         1.258905        -2.153653
