19
Iteration:  1558
 C        -0.163241        -0.066427        -0.305928
 C         1.306903         0.064527         0.104107
 C         1.904897         0.945691         1.186709
 C         3.316033         0.445206         0.555326
 C         3.123400        -1.175664         0.447042
 C         3.266233        -0.966774        -1.088384
 C         2.556984         0.283375        -0.803676
 O         2.406922         1.170544        -1.847548
 O         1.612987        -1.300305         0.618922
 H        -0.568491        -0.315988         0.632157
 H        -0.485413         1.036404        -0.647787
 H        -0.196560        -0.910656        -1.001392
 H         1.783176         2.035405         0.914712
 H         1.777558         0.792529         2.263192
 H         4.239684         0.995030         0.487880
 H         3.744807        -1.872648         1.054475
 H         4.273199        -0.714181        -1.336553
 H         2.722891        -1.563900        -1.813150
 H         3.173902         1.762972        -1.845934
