19
Iteration:  3683
 C        -0.199250        -0.011898        -0.055470
 C         1.268888         0.044445         0.226713
 C         2.061620         1.012922         1.146269
 C         3.255476         0.405644         0.513020
 C         3.188180        -1.098757         0.485579
 C         3.231854        -1.042423        -1.211904
 C         2.423532         0.213060        -0.927279
 O         2.452614         1.200530        -1.896390
 O         1.765679        -1.267741         0.594484
 H        -0.826277        -0.301370         0.906095
 H        -0.458890         1.085192        -0.462366
 H        -0.494120        -0.780207        -0.857974
 H         1.968905         2.048131         0.798643
 H         1.587991         1.115966         2.204785
 H         4.376913         0.618364         0.624720
 H         3.500752        -1.884366         1.165778
 H         4.245031        -0.933695        -1.454490
 H         2.770806        -1.950266        -1.648812
 H         1.608766         1.317071        -2.379477
