19
Iteration:   742
 C        -0.110568         0.088259        -0.229964
 C         1.343047         0.021281         0.126095
 C         2.034107         0.985951         1.139626
 C         3.276469         0.364756         0.471782
 C         3.058554        -1.205271         0.492154
 C         3.290147        -1.142716        -1.095023
 C         2.515941         0.217396        -0.890736
 O         2.368722         1.372250        -1.773515
 O         1.610585        -1.278077         0.653255
 H        -0.686130        -0.109044         0.681918
 H        -0.456883         1.036953        -0.711441
 H        -0.486681        -0.697170        -0.851614
 H         1.913514         1.940636         0.813096
 H         1.958899         0.884679         2.190248
 H         4.281257         0.684334         0.495116
 H         3.610441        -1.947735         1.065618
 H         4.265475        -0.821025        -1.320040
 H         3.075269        -1.987682        -1.690686
 H         2.484345         1.092966        -2.716391
