19
Iteration:  4410charge 0 multiplicity 1
 C        -0.194805         0.017084        -0.061336
 C         1.321574        -0.002041         0.140226
 C         2.016541         1.058150         1.132669
 C         3.277512         0.411907         0.483766
 C         3.156155        -1.162597         0.364892
 C         3.292926        -1.049144        -1.122587
 C         2.517588         0.226564        -0.904060
 O         2.424214         1.241325        -1.817086
 O         1.669782        -1.304126         0.656692
 H        -0.811078        -0.228414         0.854181
 H        -0.588206         1.066721        -0.412080
 H        -0.378046        -0.844405        -0.875135
 H         1.888938         2.051435         0.664870
 H         1.807879         1.180938         2.256333
 H         4.235082         0.904604         0.376125
 H         3.608512        -1.835293         1.114730
 H         4.269433        -1.040423        -1.626651
 H         2.760565        -1.848432        -1.667100
 H         1.586707         1.132966        -2.326384
