19
Iteration:  3414
 C        -0.189786        -0.050212        -0.063682
 C         1.251514         0.039868         0.230512
 C         2.080871         1.002633         1.197405
 C         3.230695         0.397456         0.408948
 C         3.125293        -1.081022         0.451028
 C         3.220566        -1.056259        -1.033046
 C         2.483243         0.252530        -0.955040
 O         2.503794         1.298418        -1.860972
 O         1.689519        -1.325502         0.525996
 H        -1.059649        -0.384836         0.706407
 H        -0.501243         0.956397        -0.341952
 H        -0.165146        -0.749432        -0.975992
 H         1.899641         2.059087         0.948234
 H         2.085539         0.786329         2.275744
 H         4.276111         0.761569         0.403518
 H         3.655173        -1.711723         1.115014
 H         4.247543        -0.951589        -1.357451
 H         2.704098        -1.950999        -1.462805
 H         1.866848         1.097543        -2.594294
