19
Iteration:   832
 C        -0.138307         0.013311        -0.253100
 C         1.302028         0.047213         0.140087
 C         1.989910         0.982388         1.196766
 C         3.261386         0.401838         0.475169
 C         3.038011        -1.153149         0.454197
 C         3.308177        -1.115558        -1.071246
 C         2.568557         0.218102        -0.839233
 O         2.327430         1.312471        -1.830074
 O         1.656471        -1.256449         0.615428
 H        -0.927922        -0.296558         0.549617
 H        -0.269112         0.995152        -0.659031
 H        -0.201211        -0.759247        -1.089921
 H         1.974923         2.046240         1.012274
 H         1.849918         0.718715         2.186911
 H         4.388537         0.689700         0.634686
 H         3.604633        -1.917705         1.032567
 H         4.333021        -0.884733        -1.242966
 H         2.972855        -1.932947        -1.590734
 H         3.089629         1.255426        -2.436416
