19
Iteration:  3722
 C        -0.212352        -0.037025         0.055384
 C         1.313248        -0.039886         0.126371
 C         1.924655         0.957534         1.078126
 C         3.294202         0.446563         0.453036
 C         3.086452        -1.108879         0.463388
 C         3.178935        -1.132157        -1.166297
 C         2.507936         0.223946        -1.013098
 O         2.542898         1.387502        -1.894430
 O         1.744726        -1.257670         0.752271
 H        -0.695618        -0.168060         0.993194
 H        -0.423980         0.913882        -0.322588
 H        -0.525428        -0.908103        -0.607081
 H         1.624290         2.037829         0.938054
 H         1.791352         0.626969         2.105289
 H         4.200001         0.971782         0.618824
 H         3.759592        -1.797049         0.993830
 H         4.204795        -1.261595        -1.737332
 H         2.502076        -1.893956        -1.644943
 H         2.377452         1.222263        -2.830963
