19
Iteration:  2379
 C        -0.211413        -0.048663        -0.162393
 C         1.271485        -0.058107         0.130705
 C         1.944744         0.985417         1.090137
 C         3.233754         0.422394         0.517564
 C         3.136915        -1.102379         0.494001
 C         3.338741        -1.083375        -1.052226
 C         2.531878         0.296200        -0.970684
 O         2.510704         1.391401        -1.788489
 O         1.641455        -1.370533         0.614355
 H        -0.713643        -0.157644         0.945824
 H        -0.527534         0.877309        -0.582147
 H        -0.632036        -0.902746        -0.713496
 H         1.768152         1.964819         0.689633
 H         1.860547         0.908050         2.173092
 H         4.241461         0.761306         0.602145
 H         3.780388        -1.794433         1.041735
 H         4.384324        -0.787437        -1.356600
 H         2.951634        -1.883237        -1.762706
 H         2.028049         1.279435        -2.621770
