19
Iteration:  1290
 C        -0.131038        -0.003876        -0.246635
 C         1.315915         0.005932         0.094114
 C         1.977952         0.903326         1.154289
 C         3.247341         0.467914         0.544825
 C         3.104746        -1.082334         0.484996
 C         3.332378        -1.116509        -0.995706
 C         2.599957         0.267616        -0.836836
 O         2.316356         1.267395        -1.789361
 O         1.607147        -1.262526         0.484561
 H        -0.658229         0.013837         0.845629
 H        -0.371967         0.774797        -0.936781
 H        -0.253894        -1.005700        -0.817061
 H         1.786876         2.005128         1.001990
 H         1.720691         0.598299         2.160776
 H         4.233913         1.002517         0.444658
 H         3.608714        -1.819824         1.102682
 H         4.344871        -1.030219        -1.172801
 H         2.925929        -1.939520        -1.582405
 H         3.037081         1.555627        -2.367419
