19
Iteration:  4086charge 0 multiplicity 1
 C        -0.119867         0.105730        -0.156352
 C         1.315985         0.000594         0.182686
 C         2.036622         0.962920         1.154480
 C         3.222807         0.506578         0.416539
 C         3.182121        -1.070884         0.430337
 C         3.202475        -1.107315        -1.076292
 C         2.466522         0.182581        -0.875736
 O         2.261060         1.174362        -1.831331
 O         1.792125        -1.341618         0.600680
 H        -0.656496        -0.104744         0.814000
 H        -0.389011         1.100793        -0.474959
 H        -0.596441        -0.414247        -1.112208
 H         1.918019         1.991787         0.945467
 H         1.850427         0.746946         2.200549
 H         4.184331         0.962737         0.366995
 H         3.707764        -1.806157         1.047291
 H         4.214655        -0.954015        -1.422374
 H         2.687686        -2.012382        -1.433387
 H         3.069815         1.730398        -1.958827
