19
Iteration:  2272charge 0 multiplicity 1
 C        -0.218410         0.029366        -0.220460
 C         1.313900        -0.067936         0.139752
 C         1.866822         0.957085         1.113604
 C         3.244882         0.464263         0.534310
 C         3.206647        -1.164225         0.450538
 C         3.269247        -1.125041        -1.132691
 C         2.558201         0.296180        -0.864049
 O         2.509140         1.355176        -1.802811
 O         1.729316        -1.342539         0.668443
 H        -0.859611        -0.359573         0.540408
 H        -0.422123         1.064832        -0.314773
 H        -0.497649        -0.485073        -1.227860
 H         1.646486         1.984613         0.721367
 H         1.381895         0.881942         2.131048
 H         4.209652         0.958360         0.544055
 H         3.752053        -1.931097         1.072000
 H         4.218150        -0.973251        -1.603757
 H         2.715491        -1.975132        -1.502095
 H         1.684540         1.490148        -2.264889
