19
Iteration:  3706
 C        -0.255935        -0.034445        -0.006829
 C         1.251270        -0.033075         0.181017
 C         1.996856         0.950365         1.105225
 C         3.197546         0.521799         0.344647
 C         3.140685        -1.154975         0.339717
 C         3.157419        -1.123526        -1.089448
 C         2.561253         0.315104        -0.892833
 O         2.593791         1.298532        -1.870642
 O         1.722697        -1.292831         0.717737
 H        -0.567074        -0.272948         1.131985
 H        -0.595892         1.016645        -0.356837
 H        -0.623228        -0.861028        -0.608599
 H         1.799623         1.971912         0.889785
 H         1.899537         0.889139         2.216248
 H         4.245157         0.970870         0.285018
 H         3.762386        -1.805630         0.963951
 H         4.169348        -0.868011        -1.327933
 H         2.780677        -1.923872        -1.712065
 H         2.009915         1.034465        -2.621037
