19
Iteration:  3645
 C        -0.082176         0.131408        -0.334831
 C         1.358267        -0.101891         0.187412
 C         2.072580         0.923233         1.200259
 C         3.318484         0.557226         0.388306
 C         3.064699        -1.151551         0.511143
 C         3.222766        -1.120099        -1.138987
 C         2.584120         0.264658        -0.919346
 O         2.204374         1.197371        -1.817528
 O         1.746016        -1.289835         0.755252
 H        -0.801099        -0.015471         0.437022
 H        -0.205167         1.149048        -0.583400
 H        -0.285174        -0.537591        -1.216054
 H         1.844305         2.025781         1.018469
 H         2.024325         0.544463         2.234151
 H         4.322691         0.884133         0.493635
 H         3.796253        -1.639280         1.180544
 H         4.304441        -1.120253        -1.548348
 H         2.604876        -1.771199        -1.788884
 H         1.251557         1.454445        -1.762058
