19
Iteration:  2773
 C        -0.179874         0.025090        -0.192983
 C         1.354073        -0.013894         0.075577
 C         1.940250         0.949056         1.141628
 C         3.281016         0.389495         0.526305
 C         3.129730        -1.185154         0.430962
 C         3.230693        -1.039974        -1.186069
 C         2.587076         0.254951        -0.850044
 O         2.317010         1.195832        -1.812385
 O         1.713410        -1.197131         0.630266
 H        -0.565514        -0.455232         0.886835
 H        -0.546776         1.006405        -0.179809
 H        -0.537394        -0.823850        -0.927409
 H         1.962010         2.057509         0.912371
 H         1.716535         0.734019         2.174232
 H         4.357493         0.762782         0.669191
 H         3.704124        -1.724557         1.229545
 H         4.227093        -0.828738        -1.448355
 H         2.783394        -1.771729        -1.836981
 H         2.818578         2.040978        -1.724964
