19
Iteration:  1575
 C        -0.214542        -0.008512        -0.204514
 C         1.275569        -0.013659         0.062196
 C         1.943918         1.006163         1.138061
 C         3.203481         0.427633         0.573263
 C         3.091264        -1.150395         0.459989
 C         3.382964        -1.138189        -1.097761
 C         2.583890         0.273664        -0.908800
 O         2.374236         1.291425        -1.798202
 O         1.722989        -1.270710         0.586879
 H        -0.843018        -0.157659         0.769548
 H        -0.628904         0.824398        -0.660524
 H        -0.489005        -0.800435        -0.945832
 H         1.774983         2.040020         0.919506
 H         1.571391         0.668371         2.122159
 H         4.186494         0.783728         0.946258
 H         3.567777        -1.909521         1.073396
 H         4.518915        -0.834670        -1.266738
 H         2.975163        -2.006899        -1.667925
 H         3.135941         1.836630        -1.989864
