19
Iteration:   236
 C        -0.136438         0.130440        -0.232405
 C         1.349186         0.110190         0.139730
 C         1.990661         0.942248         1.252907
 C         3.327170         0.442326         0.526056
 C         3.084948        -1.235696         0.356368
 C         3.095562        -1.205312        -1.165855
 C         2.520288         0.268328        -0.818932
 O         2.541046         1.159378        -1.905300
 O         1.672903        -1.188728         0.682384
 H        -0.606893        -0.036922         0.674559
 H        -0.496316         1.060210        -0.600032
 H        -0.361569        -0.650974        -0.982502
 H         1.608763         2.014820         1.196545
 H         1.732673         0.643873         2.256082
 H         4.415726         0.872753         0.771573
 H         3.618508        -1.904681         0.954719
 H         4.156208        -1.032898        -1.625385
 H         2.567537        -2.082627        -1.706607
 H         1.701352         1.689971        -1.877186
