19
Iteration:   373
 C        -0.196666         0.079743        -0.287676
 C         1.328968         0.129392         0.168665
 C         2.097053         0.967276         1.228125
 C         3.353459         0.314199         0.446449
 C         3.047143        -1.223135         0.423843
 C         3.186056        -1.174053        -1.074853
 C         2.523315         0.274266        -0.858878
 O         2.463138         1.299713        -1.855795
 O         1.656878        -1.227311         0.668241
 H        -0.892941        -0.057830         0.576313
 H        -0.514637         0.944505        -0.839392
 H        -0.255465        -0.765997        -0.947512
 H         2.104449         2.049570         1.157289
 H         1.748553         0.836112         2.263096
 H         4.331124         0.555557         0.549601
 H         3.557003        -1.987155         1.032090
 H         4.252192        -0.903155        -1.423488
 H         2.685676        -2.013364        -1.653970
 H         1.524720         1.311054        -2.068275
