19
Iteration:  1474
 C        -0.124212         0.057746        -0.295781
 C         1.253288         0.025487         0.120826
 C         1.939319         1.056742         1.111302
 C         3.247674         0.354380         0.622531
 C         3.081420        -1.265537         0.375918
 C         3.428144        -1.045891        -1.019882
 C         2.598635         0.315022        -0.783699
 O         2.240081         1.288447        -1.840918
 O         1.672432        -1.361938         0.634909
 H        -0.785437        -0.086776         0.485290
 H        -0.464031         0.843561        -0.866663
 H        -0.356399        -0.866001        -0.994274
 H         1.868783         2.100004         0.654317
 H         1.825805         1.189942         2.166903
 H         4.350163         0.665567         0.788089
 H         3.773591        -1.793513         1.036727
 H         4.512778        -0.902926        -1.349054
 H         3.021254        -1.913951        -1.662609
 H         3.075777         1.497019        -2.339323
