19
Iteration:  4431charge 0 multiplicity 1
 C        -0.059223         0.041789        -0.259398
 C         1.340610        -0.026429         0.214792
 C         1.993657         1.071641         1.019043
 C         3.347541         0.443306         0.484448
 C         3.149216        -1.141653         0.449685
 C         3.103224        -1.113208        -1.140464
 C         2.532646         0.190899        -0.822447
 O         2.318300         1.324494        -1.778191
 O         1.758622        -1.361376         0.685108
 H        -0.773804        -0.148454         0.599935
 H        -0.305973         1.176381        -0.319617
 H        -0.411091        -0.656031        -1.104823
 H         1.742086         2.039817         0.636498
 H         1.851346         1.023933         2.130777
 H         4.332082         0.877350         0.638180
 H         3.737993        -1.911710         0.961790
 H         4.147113        -0.957638        -1.529690
 H         2.672454        -1.993164        -1.583150
 H         1.418139         1.077901        -2.091899
