19
Iteration:  4517
 C        -0.221971         0.045372        -0.041628
 C         1.310401         0.004672         0.130165
 C         1.936416         0.933718         1.069847
 C         3.265818         0.443446         0.441774
 C         3.201869        -1.180758         0.375383
 C         3.284372        -1.112037        -1.141651
 C         2.519364         0.246367        -0.911059
 O         2.449997         1.317357        -1.812348
 O         1.709817        -1.279610         0.679371
 H        -0.522572        -0.009987         1.040838
 H        -0.652783         1.077069        -0.312171
 H        -0.680141        -0.710740        -0.582267
 H         1.781079         1.948956         0.813411
 H         1.665544         0.821917         2.130454
 H         4.248769         0.955193         0.604376
 H         3.751340        -1.850255         1.037951
 H         4.387529        -0.992343        -1.360830
 H         2.559184        -1.742772        -1.645844
 H         1.884074         0.866334        -2.482659
