19
Iteration:  4156charge 0 multiplicity 1
 C        -0.093331        -0.049772        -0.239354
 C         1.277568         0.018739         0.133853
 C         2.046665         1.035167         1.191155
 C         3.335091         0.390919         0.442241
 C         3.153311        -1.110994         0.377949
 C         3.142341        -1.125178        -1.108305
 C         2.485045         0.262584        -0.867103
 O         2.257326         1.234427        -1.707710
 O         1.759525        -1.231476         0.655334
 H        -0.777756        -0.170155         0.647809
 H        -0.424320         0.810107        -0.904080
 H        -0.249612        -0.825717        -0.921120
 H         2.068542         2.163403         0.948397
 H         1.941059         0.992119         2.291031
 H         4.309405         0.963880         0.518808
 H         3.742684        -1.862828         0.941686
 H         4.139864        -0.941836        -1.589083
 H         2.625956        -2.040236        -1.493422
 H         2.714712         1.342188        -2.566784
