19
Iteration:   521
 C        -0.106597         0.179004        -0.204523
 C         1.311311        -0.030056         0.157935
 C         2.096584         1.023836         1.113816
 C         3.337393         0.423454         0.394738
 C         3.065915        -1.247976         0.496438
 C         3.225599        -1.198986        -1.128590
 C         2.524377         0.203361        -0.893278
 O         2.355135         1.344507        -1.702664
 O         1.603592        -1.281462         0.649411
 H        -0.710231         0.197651         0.732572
 H        -0.334436         1.229507        -0.694446
 H        -0.415145        -0.710967        -0.890450
 H         1.910080         2.068535         0.816731
 H         1.840612         0.908617         2.167622
 H         4.470966         0.653122         0.235311
 H         3.635282        -1.998828         1.118977
 H         4.224390        -1.140037        -1.316358
 H         2.820604        -1.960139        -1.750992
 H         2.285379         1.049720        -2.604505
