19
Iteration:   563charge 0 multiplicity 1
 C        -0.087380         0.132166        -0.216574
 C         1.384125         0.050495         0.189293
 C         2.026376         0.938041         1.255461
 C         3.362766         0.390189         0.501895
 C         3.043998        -1.208131         0.417048
 C         3.075967        -1.087212        -1.142215
 C         2.614036         0.288117        -0.831664
 O         2.459315         1.181294        -1.946668
 O         1.629107        -1.298812         0.664532
 H        -0.740529         0.129998         0.653766
 H        -0.347908         1.187499        -0.600726
 H        -0.476521        -0.605484        -1.014924
 H         1.741370         1.977919         1.016188
 H         1.915491         0.880280         2.338426
 H         4.438620         0.883850         0.610173
 H         3.534774        -1.921058         1.088716
 H         4.106840        -0.838497        -1.481770
 H         2.410050        -1.673114        -1.879724
 H         1.500018         1.342266        -2.103149
