19
Iteration:  2076charge 0 multiplicity 1
 C        -0.259101         0.015621        -0.134459
 C         1.236355        -0.086050         0.161096
 C         1.918918         0.945014         1.239873
 C         3.154179         0.504793         0.521339
 C         3.183058        -1.093375         0.412788
 C         3.216048        -1.062288        -1.151427
 C         2.561798         0.346463        -0.887606
 O         2.648221         1.354833        -1.939470
 O         1.684282        -1.390654         0.688626
 H        -0.701574        -0.416170         0.706161
 H        -0.561648         1.009679        -0.467384
 H        -0.393115        -0.851815        -1.020110
 H         1.638849         1.913032         0.956318
 H         1.870940         0.655321         2.283431
 H         4.103707         1.006275         0.563299
 H         3.667343        -1.916763         1.033197
 H         4.225416        -1.053288        -1.520596
 H         2.671584        -1.897927        -1.542006
 H         2.555630         0.825930        -2.723355
