19
Iteration:  4459
 C        -0.094672         0.030780        -0.438109
 C         1.332646         0.048592         0.196086
 C         2.109480         0.936587         1.223677
 C         3.268124         0.443036         0.411117
 C         3.135343        -1.116737         0.457442
 C         3.125073        -1.193622        -1.171332
 C         2.470100         0.165222        -0.879761
 O         2.268665         1.338897        -1.760592
 O         1.812148        -1.219730         0.801052
 H        -0.742956        -0.261660         0.393449
 H        -0.339782         1.037069        -0.677595
 H        -0.255056        -0.655510        -1.308837
 H         1.964507         2.047837         1.223551
 H         2.157797         0.554459         2.233095
 H         4.230197         0.955497         0.592827
 H         3.748354        -1.707477         1.112381
 H         4.139384        -1.125371        -1.590725
 H         2.723542        -2.036780        -1.806635
 H         1.456321         1.060349        -2.207125
