19
Iteration:   269
 C        -0.182443         0.116468        -0.155455
 C         1.319869         0.062731         0.198963
 C         2.113154         1.006321         1.170533
 C         3.332929         0.307125         0.548824
 C         3.012597        -1.167328         0.428019
 C         3.199046        -1.145092        -1.091745
 C         2.570209         0.323667        -0.879700
 O         2.502333         1.279816        -1.936150
 O         1.572925        -1.314753         0.617428
 H        -0.774086        -0.156522         0.644838
 H        -0.554816         1.055192        -0.514455
 H        -0.453280        -0.655040        -0.900774
 H         1.925788         1.966588         0.617477
 H         1.983998         0.917769         2.231019
 H         4.494246         0.363502         0.909680
 H         3.622772        -1.717610         1.082348
 H         4.294976        -0.874464        -1.309370
 H         2.800645        -1.978184        -1.748090
 H         1.600676         1.128875        -2.355434
