19
Iteration:   231charge 0 multiplicity 1
 C        -0.133193         0.173412        -0.261651
 C         1.281815         0.092412         0.173190
 C         1.986503         0.952065         1.211299
 C         3.297430         0.392477         0.505142
 C         3.112549        -1.171320         0.380956
 C         3.079459        -1.193177        -1.182311
 C         2.529466         0.230013        -0.879477
 O         2.540125         1.181381        -1.891992
 O         1.715161        -1.227581         0.720749
 H        -0.670103        -0.085665         0.767779
 H        -0.412190         1.205112        -0.651357
 H        -0.278552        -0.646841        -0.982831
 H         1.693818         1.978680         1.298852
 H         1.732348         0.603066         2.246839
 H         4.248806         0.698442         0.724312
 H         3.730238        -1.921213         1.004222
 H         4.073876        -1.029598        -1.451950
 H         2.655626        -2.047743        -1.600221
 H         1.827653         1.808434        -1.794738
