19
Iteration:  1718
 C        -0.128448         0.055524        -0.257951
 C         1.252307        -0.108530         0.159178
 C         1.890980         0.997852         1.049385
 C         3.217045         0.469296         0.490082
 C         3.117766        -1.133559         0.506916
 C         3.329431        -1.127964        -1.114660
 C         2.634628         0.254963        -0.892971
 O         2.375792         1.327711        -1.718566
 O         1.712905        -1.346928         0.634936
 H        -0.916143        -0.354995         0.597976
 H        -0.628146         1.078262        -0.439536
 H        -0.518023        -0.408221        -1.165185
 H         1.588497         1.949771         0.687119
 H         1.523214         0.725773         2.073887
 H         4.121270         0.979953         0.673402
 H         3.663159        -1.828621         1.182252
 H         4.339342        -0.875519        -1.331670
 H         2.955220        -1.837404        -1.800041
 H         3.214700         1.519234        -2.222568
