19
Iteration:  1202charge 0 multiplicity 1
 C        -0.113764        -0.022244        -0.422669
 C         1.335325         0.055793         0.086222
 C         2.020331         0.856006         1.126332
 C         3.318941         0.411575         0.553093
 C         3.070524        -1.135791         0.524153
 C         3.240332        -1.091134        -1.027785
 C         2.549367         0.325914        -0.806004
 O         2.249685         1.269173        -1.831099
 O         1.706467        -1.223156         0.672465
 H        -0.992824        -0.434806         0.288634
 H        -0.539012         0.971795        -0.659322
 H        -0.090525        -0.721237        -1.349147
 H         1.843657         1.976456         1.129037
 H         1.716302         0.423006         2.092071
 H         4.415232         0.656981         0.642758
 H         3.672673        -1.735335         1.176157
 H         4.175448        -0.781035        -1.295407
 H         2.819554        -1.889462        -1.622338
 H         3.147370         1.535287        -2.068790
