19
Iteration:   729charge 0 multiplicity 1
 C        -0.107523         0.088931        -0.221818
 C         1.316101         0.120638         0.129257
 C         2.000112         1.048935         1.180593
 C         3.317591         0.356689         0.502931
 C         3.073280        -1.221663         0.347791
 C         3.288687        -1.128896        -1.093057
 C         2.536302         0.245665        -0.875605
 O         2.291635         1.231538        -1.767034
 O         1.637656        -1.300082         0.643775
 H        -0.614069         0.107150         0.671619
 H        -0.350064         1.039350        -0.787114
 H        -0.201019        -0.777510        -0.806594
 H         1.962255         2.088903         0.989096
 H         1.531456         0.858012         2.157905
 H         4.296616         0.708521         0.593741
 H         3.582918        -1.898847         1.014198
 H         4.376143        -0.945613        -1.285264
 H         2.823336        -1.979857        -1.740196
 H         3.145035         1.307141        -2.281555
