19
Iteration:  3089
 C        -0.222924         0.064252        -0.140487
 C         1.277205         0.012713         0.161663
 C         1.995938         1.005921         1.199280
 C         3.265868         0.423359         0.471387
 C         3.198220        -1.118065         0.369422
 C         3.168730        -1.106764        -1.139765
 C         2.494276         0.240273        -0.849396
 O         2.402941         1.215131        -1.852438
 O         1.760889        -1.321651         0.652065
 H        -0.777099        -0.219916         0.705232
 H        -0.516703         1.096905        -0.302831
 H        -0.533359        -0.618887        -1.081539
 H         1.746264         1.897895         0.702301
 H         1.871121         0.977505         2.205486
 H         4.273052         0.962678         0.412818
 H         3.748083        -1.837939         0.939229
 H         4.125928        -1.091102        -1.638352
 H         2.607716        -1.966293        -1.572456
 H         3.230786         1.773469        -1.835580
