19
Iteration:   717
 C        -0.143184         0.130802        -0.239957
 C         1.330713         0.048214         0.150561
 C         2.024175         0.977194         1.144027
 C         3.295800         0.390580         0.593510
 C         3.087899        -1.200167         0.444790
 C         3.198676        -1.088711        -1.156507
 C         2.569120         0.230310        -0.816591
 O         2.304595         1.172018        -1.838764
 O         1.698495        -1.246064         0.613898
 H        -0.840037         0.108489         0.533251
 H        -0.403799         0.959676        -0.915860
 H        -0.408019        -0.761528        -0.793424
 H         1.982915         2.063836         0.868219
 H         1.874959         0.774642         2.235954
 H         4.287896         0.797612         0.750560
 H         3.651050        -1.973324         0.967951
 H         4.302360        -1.056391        -1.480469
 H         2.598296        -1.814596        -1.890236
 H         3.066612         1.759220        -1.921618
