19
Iteration:  2669charge 0 multiplicity 1
 C        -0.051273        -0.011954        -0.376020
 C         1.346444        -0.010052         0.166412
 C         2.050454         1.003021         1.156199
 C         3.332113         0.478723         0.478642
 C         3.053688        -1.231640         0.418618
 C         3.230766        -1.055821        -1.098563
 C         2.568091         0.293451        -0.810014
 O         2.205597         1.239191        -1.772412
 O         1.694182        -1.326273         0.680848
 H        -0.752801        -0.090872         0.387487
 H        -0.270782         0.997521        -1.006771
 H        -0.257694        -0.727945        -1.136967
 H         1.889627         2.063411         0.906773
 H         1.944405         0.968112         2.290264
 H         4.355966         0.772763         0.581235
 H         3.762131        -1.995154         0.886391
 H         4.298668        -0.857475        -1.313621
 H         2.889999        -1.814163        -1.866456
 H         1.901613         2.016404        -1.290722
