19
Iteration:  4450charge 0 multiplicity 1
 C        -0.076701         0.073155        -0.378262
 C         1.306090        -0.015955         0.127382
 C         2.075741         0.912009         1.186758
 C         3.276969         0.448135         0.403833
 C         3.214212        -1.164590         0.460467
 C         3.177008        -1.207593        -1.152215
 C         2.497424         0.234483        -0.856794
 O         2.245488         1.333370        -1.755650
 O         1.766356        -1.223167         0.814633
 H        -0.871681        -0.277657         0.300821
 H        -0.401099         1.079587        -0.625880
 H        -0.144153        -0.595161        -1.129728
 H         2.028075         1.939392         0.888039
 H         1.863831         0.783906         2.211459
 H         4.297206         0.829473         0.502517
 H         3.899522        -1.712181         0.992453
 H         4.201227        -1.152932        -1.529978
 H         2.384521        -1.812387        -1.571580
 H         1.434323         1.336376        -2.273040
