19
Iteration:  4984charge 0 multiplicity 1
 C        -0.087294         0.098355        -0.220573
 C         1.337806        -0.003778         0.186871
 C         1.977033         0.957995         1.203846
 C         3.299999         0.411578         0.443316
 C         3.228079        -1.116903         0.440571
 C         3.184749        -1.072524        -1.086215
 C         2.447212         0.255675        -0.887788
 O         2.316653         1.198132        -1.986549
 O         1.747436        -1.298542         0.754456
 H        -0.693964        -0.023123         0.711004
 H        -0.324880         1.105554        -0.645346
 H        -0.375264        -0.557356        -0.966451
 H         1.978064         2.010210         0.946825
 H         1.641377         0.730927         2.238590
 H         4.372737         0.695496         0.502735
 H         3.917859        -1.775593         1.020572
 H         4.248414        -0.948168        -1.446033
 H         2.702127        -1.922069        -1.544605
 H         1.386939         1.457681        -1.873901
