19
Iteration:  2182
 C        -0.107500         0.063986        -0.417587
 C         1.295850        -0.012401         0.164530
 C         2.013009         0.859423         1.260146
 C         3.257560         0.471014         0.532485
 C         3.194300        -1.109280         0.421979
 C         3.157082        -1.074727        -1.054725
 C         2.525601         0.280932        -0.897939
 O         2.322062         1.277343        -1.799491
 O         1.737557        -1.316966         0.668226
 H        -0.867205         0.163599         0.454312
 H        -0.231564         0.928776        -0.982498
 H        -0.370871        -0.747831        -1.013531
 H         1.692605         1.885842         1.062558
 H         1.773393         0.712024         2.368768
 H         4.138610         1.014862         0.844775
 H         3.723132        -1.878922         1.051240
 H         4.163100        -0.937887        -1.563355
 H         2.562022        -1.884622        -1.537671
 H         2.956975         1.165909        -2.494000
