19
Iteration:  4322
 C        -0.134882         0.004961        -0.156992
 C         1.357380         0.003395         0.143827
 C         2.041710         0.996778         1.089007
 C         3.340300         0.411939         0.396119
 C         3.128491        -1.194510         0.403275
 C         3.187576        -1.131308        -1.144271
 C         2.547804         0.205146        -0.881928
 O         2.257676         1.357744        -1.756949
 O         1.701990        -1.245300         0.752789
 H        -0.681418        -0.231103         0.751311
 H        -0.321976         0.969363        -0.789262
 H        -0.300626        -0.693547        -1.026291
 H         1.854909         2.049700         0.873718
 H         1.908357         0.747971         2.207873
 H         4.297518         0.772132         0.689919
 H         3.718808        -1.641015         1.136061
 H         4.263565        -0.865453        -1.378500
 H         2.837137        -1.934705        -1.754052
 H         1.971903         1.009816        -2.632944
