19
Iteration:  1984charge 0 multiplicity 1
 C        -0.039889         0.098167        -0.450216
 C         1.322520        -0.052184         0.174898
 C         1.903649         0.956947         1.292459
 C         3.233130         0.469104         0.546260
 C         3.176066        -1.163664         0.375022
 C         3.078555        -1.048295        -1.096562
 C         2.462342         0.269845        -0.824877
 O         2.352115         1.180174        -1.857339
 O         1.845763        -1.309376         0.721649
 H        -1.014832        -0.084159         0.207005
 H        -0.080169         1.007445        -1.053883
 H        -0.245052        -0.736426        -1.101222
 H         1.532790         2.017438         1.213690
 H         1.783417         0.457176         2.267301
 H         4.210584         1.031453         0.666539
 H         3.856824        -1.752041         0.904468
 H         4.029623        -0.781148        -1.451154
 H         2.597253        -1.818412        -1.647935
 H         3.052727         1.894931        -1.840410
