19
Iteration:  2599
 C        -0.241662         0.012668        -0.135500
 C         1.260981         0.006186         0.115207
 C         1.943388         0.952714         1.148519
 C         3.252806         0.422409         0.514149
 C         3.129892        -1.120786         0.392747
 C         3.315476        -1.079977        -1.121047
 C         2.580024         0.299401        -0.901351
 O         2.395655         1.276662        -1.781614
 O         1.716496        -1.305222         0.629201
 H        -0.676953        -0.399365         0.885174
 H        -0.518692         0.971311        -0.368744
 H        -0.439018        -0.678826        -1.014208
 H         1.816840         2.027810         0.917427
 H         1.600830         0.786070         2.157623
 H         4.259583         0.878424         0.696181
 H         3.647393        -1.784047         1.056965
 H         4.379776        -0.762182        -1.380802
 H         3.030916        -2.035558        -1.820285
 H         2.737676         1.079635        -2.648743
