19
Iteration:  1543charge 0 multiplicity 1
 C        -0.064580        -0.026372        -0.367002
 C         1.299298        -0.043890         0.205294
 C         1.990968         0.942215         1.217627
 C         3.222137         0.462993         0.583104
 C         3.101008        -1.116612         0.427900
 C         3.130084        -0.998654        -1.061645
 C         2.521831         0.341248        -0.806408
 O         2.410673         1.219254        -1.936311
 O         1.712041        -1.315858         0.655380
 H        -0.931685        -0.478735         0.253992
 H        -0.399086         0.900259        -0.758703
 H        -0.113197        -0.694825        -1.184589
 H         1.776069         1.966392         0.990698
 H         1.697504         0.776485         2.272061
 H         4.246718         0.713589         0.849076
 H         3.633145        -1.874166         0.995204
 H         4.255265        -0.867314        -1.518759
 H         2.757287        -1.895970        -1.622437
 H         3.227188         1.803611        -1.974061
