19
Iteration:  4983
 C        -0.082588         0.093478        -0.217147
 C         1.334035        -0.002776         0.186980
 C         1.981392         0.959782         1.199068
 C         3.306731         0.413779         0.449008
 C         3.238551        -1.116813         0.440555
 C         3.179157        -1.076597        -1.079652
 C         2.447161         0.259227        -0.883607
 O         2.308596         1.196172        -1.983785
 O         1.739722        -1.296324         0.750508
 H        -0.703092        -0.013991         0.694638
 H        -0.301652         1.099876        -0.653571
 H        -0.364042        -0.551386        -0.984213
 H         1.959967         1.986560         0.925484
 H         1.622326         0.741802         2.185544
 H         4.404713         0.670243         0.517594
 H         3.925549        -1.781178         1.001756
 H         4.252505        -0.966433        -1.433804
 H         2.720921        -1.888711        -1.594907
 H         1.385684         1.476452        -1.877212
