19
Iteration:  2901charge 0 multiplicity 1
 C        -0.257554         0.054651         0.025488
 C         1.251600        -0.105838         0.114139
 C         1.871579         0.960089         1.088785
 C         3.182826         0.424812         0.456362
 C         3.214838        -1.077736         0.363686
 C         3.291587        -1.090621        -1.178602
 C         2.497981         0.213823        -0.907718
 O         2.567771         1.261667        -1.863835
 O         1.738305        -1.321875         0.657758
 H        -0.752101        -0.091454         0.975718
 H        -0.381450         1.196578        -0.193875
 H        -0.835725        -0.433080        -0.826106
 H         1.811395         2.055396         0.887351
 H         1.723451         0.681987         2.137287
 H         4.144017         1.027919         0.684983
 H         3.757910        -1.850975         0.975740
 H         4.371933        -0.790336        -1.484959
 H         2.898541        -1.940714        -1.761308
 H         2.262911         2.082016        -1.459631
