19
Iteration:  2701
 C        -0.246405        -0.020704        -0.186135
 C         1.277268         0.005949         0.109059
 C         1.926255         0.952166         1.152844
 C         3.278336         0.435599         0.510188
 C         3.178137        -1.185011         0.438962
 C         3.260158        -1.156509        -1.121001
 C         2.521031         0.309700        -0.847141
 O         2.463795         1.325054        -1.824821
 O         1.780543        -1.284696         0.614647
 H        -0.697422         0.098136         0.754836
 H        -0.397194         1.026648        -0.632680
 H        -0.589887        -0.829105        -0.793993
 H         1.787069         2.003585         0.911067
 H         1.668054         0.782477         2.241618
 H         4.210962         0.948936         0.620123
 H         3.861240        -1.908261         0.974984
 H         4.247632        -0.913929        -1.620552
 H         2.711312        -1.957405        -1.778563
 H         1.487946         1.542603        -1.804305
