19
Iteration:   542
 C        -0.136031         0.154896        -0.207151
 C         1.308506         0.120528         0.135399
 C         2.133914         0.980534         1.099009
 C         3.297301         0.273130         0.619927
 C         3.084303        -1.209731         0.367767
 C         3.237957        -1.153202        -1.101965
 C         2.520453         0.269159        -0.882588
 O         2.349246         1.264971        -1.822181
 O         1.672111        -1.238051         0.654238
 H        -0.792347         0.119759         0.685952
 H        -0.550426         1.133754        -0.717978
 H        -0.337905        -0.769541        -0.906856
 H         2.270518         2.053493         0.970247
 H         1.833897         0.848123         2.154033
 H         4.402671         0.611165         0.892254
 H         3.514533        -2.062011         0.939945
 H         4.227723        -1.022607        -1.491650
 H         2.609377        -1.911174        -1.582346
 H         1.652763         0.884458        -2.427111
