19
Iteration:  2834charge 0 multiplicity 1
 C        -0.029375         0.049205        -0.334522
 C         1.318074         0.036696         0.175051
 C         2.010792         0.907128         1.230735
 C         3.308627         0.471500         0.520767
 C         3.188552        -1.202433         0.372587
 C         3.080246        -1.059193        -1.145388
 C         2.462438         0.312868        -0.804594
 O         2.341887         1.170175        -1.868963
 O         1.746418        -1.272799         0.719910
 H        -0.698548        -0.117392         0.400984
 H        -0.377608         0.902302        -1.032836
 H        -0.129604        -0.734748        -1.023393
 H         1.981932         1.993788         1.269945
 H         1.747954         0.535695         2.229459
 H         4.248963         0.965549         0.739052
 H         3.883607        -1.839473         0.921240
 H         4.080632        -0.723749        -1.653463
 H         2.636339        -1.885286        -1.754442
 H         1.670060         1.886293        -1.692067
