19
Iteration:   740
 C        -0.099379         0.080370        -0.230151
 C         1.333665         0.048333         0.119895
 C         2.026218         0.998968         1.159040
 C         3.286035         0.360819         0.467329
 C         3.060598        -1.212730         0.467721
 C         3.292461        -1.139195        -1.086568
 C         2.518140         0.223077        -0.893047
 O         2.356612         1.353858        -1.768076
 O         1.604364        -1.286021         0.656652
 H        -0.617449        -0.046302         0.664744
 H        -0.443150         1.045766        -0.691106
 H        -0.442521        -0.715028        -0.828231
 H         1.889383         1.982924         0.796432
 H         1.872282         0.892494         2.248020
 H         4.286204         0.659137         0.482096
 H         3.606201        -1.946758         1.045515
 H         4.315661        -0.773427        -1.356763
 H         3.085276        -2.100322        -1.705857
 H         2.578949         1.139155        -2.723551
