19
Iteration:   934charge 0 multiplicity 1
 C        -0.120593        -0.041843        -0.194410
 C         1.299417        -0.014550         0.111765
 C         1.950398         1.019550         1.097771
 C         3.256476         0.421762         0.645390
 C         3.065713        -1.228440         0.451586
 C         3.254915        -1.108558        -1.112291
 C         2.624011         0.325497        -0.867928
 O         2.528313         1.339949        -1.894829
 O         1.638662        -1.316186         0.617298
 H        -0.678213        -0.431426         0.666281
 H        -0.478478         1.014094        -0.587382
 H        -0.450674        -0.721634        -1.030194
 H         1.654300         2.055939         0.839814
 H         1.654272         0.911558         2.175988
 H         4.195070         0.867509         0.989403
 H         3.543239        -1.848840         1.186007
 H         4.206273        -0.974002        -1.581044
 H         2.669014        -1.814600        -1.560689
 H         1.587612         1.614484        -2.051456
