19
Iteration:  2909
 C        -0.271704         0.060023        -0.052630
 C         1.293840        -0.070582         0.094677
 C         1.873820         0.885053         1.100444
 C         3.237810         0.442376         0.498482
 C         3.192368        -1.119486         0.443065
 C         3.227403        -1.068872        -1.186011
 C         2.535910         0.239180        -0.922783
 O         2.535821         1.304442        -1.930929
 O         1.742421        -1.349785         0.697350
 H        -0.647208        -0.229437         1.116328
 H        -0.555847         1.194601        -0.201931
 H        -0.922277        -0.375654        -0.767251
 H         1.599002         1.881708         0.856171
 H         1.958571         0.867730         2.185518
 H         4.136133         0.924867         0.751892
 H         3.948263        -1.668740         0.977937
 H         4.319268        -0.910222        -1.538540
 H         2.805298        -1.953872        -1.718579
 H         2.365495         2.107269        -1.445931
