19
Iteration:  1713
 C        -0.169683         0.078664        -0.277669
 C         1.268521        -0.136079         0.154959
 C         1.913170         0.974121         1.008646
 C         3.193240         0.457609         0.487795
 C         3.132036        -1.139927         0.525210
 C         3.350275        -1.065624        -1.103534
 C         2.618562         0.219303        -0.887775
 O         2.364716         1.335021        -1.698623
 O         1.699253        -1.364056         0.675581
 H        -0.754134        -0.283233         0.478673
 H        -0.327877         1.140442        -0.346635
 H        -0.432651        -0.402622        -1.312627
 H         1.523661         1.949767         0.604321
 H         1.574924         0.884059         2.052858
 H         4.189345         1.007698         0.581872
 H         3.695454        -1.826279         1.138572
 H         4.385157        -0.873050        -1.565808
 H         2.794595        -1.804821        -1.772263
 H         3.177559         1.544637        -2.179643
