19
Iteration:  1145
 C        -0.206028         0.082256        -0.344837
 C         1.336762        -0.053867         0.026559
 C         1.965306         0.852254         1.144687
 C         3.196612         0.434917         0.554782
 C         3.175567        -1.094857         0.505056
 C         3.254033        -1.064020        -1.013930
 C         2.554171         0.244174        -0.874241
 O         2.361385         1.315974        -1.828722
 O         1.697372        -1.315607         0.694271
 H        -0.532871        -0.325592         0.644569
 H        -0.320439         1.243823        -0.585952
 H        -0.478206        -0.464928        -1.296544
 H         1.854108         1.887098         0.974564
 H         1.703623         0.683118         2.213064
 H         4.137260         0.806335         0.682662
 H         3.811714        -1.745622         1.144004
 H         4.200372        -0.896512        -1.417856
 H         2.751011        -1.798497        -1.545801
 H         3.136053         1.328264        -2.442689
