19
Iteration:  4306charge 0 multiplicity 1
 C        -0.012432         0.014742        -0.293196
 C         1.320517         0.015080         0.176380
 C         2.116136         0.981494         1.157188
 C         3.325526         0.461251         0.402385
 C         3.135727        -1.119505         0.455683
 C         3.239773        -1.215116        -1.104838
 C         2.495624         0.258790        -0.953363
 O         2.204772         1.350174        -1.706278
 O         1.691947        -1.270254         0.719016
 H        -0.796751        -0.236980         0.536317
 H        -0.506971         0.937200        -0.573883
 H        -0.284556        -0.782276        -0.993985
 H         1.957792         2.041992         0.892369
 H         2.057985         0.716331         2.172940
 H         4.357249         0.916770         0.238761
 H         3.520440        -2.067147         1.047836
 H         4.281562        -1.175148        -1.363190
 H         2.493083        -1.932453        -1.552227
 H         1.650426         1.085565        -2.490480
