19
Iteration:  3974charge 0 multiplicity 1
 C        -0.077912         0.124704        -0.295267
 C         1.338628         0.006898         0.162717
 C         2.078853         1.031487         1.155399
 C         3.299538         0.403657         0.471882
 C         3.134806        -1.174186         0.386819
 C         3.181159        -1.106708        -1.166979
 C         2.558588         0.246744        -0.839042
 O         2.077733         1.170175        -1.775273
 O         1.777374        -1.270061         0.761866
 H        -0.760581        -0.175336         0.489782
 H        -0.239347         1.177517        -0.739037
 H         0.070611        -0.717724        -1.151230
 H         2.012112         2.055247         0.776132
 H         1.693440         0.771615         2.134169
 H         4.380057         0.697450         0.561714
 H         3.752528        -1.862984         0.949314
 H         4.246031        -0.881222        -1.265243
 H         2.641187        -1.859178        -1.658169
 H         2.872259         1.533653        -2.188493
