19
Iteration:   362charge 0 multiplicity 1
 C        -0.155513         0.045068        -0.298059
 C         1.266645         0.113789         0.114637
 C         2.152317         0.975954         1.249570
 C         3.338038         0.287912         0.546214
 C         3.113300        -1.224119         0.422948
 C         3.182995        -1.068160        -1.141718
 C         2.537524         0.221493        -0.875714
 O         2.451257         1.227186        -1.828551
 O         1.553882        -1.128050         0.686987
 H        -0.809517        -0.083891         0.614479
 H        -0.531433         0.868923        -0.866550
 H        -0.302188        -0.873311        -0.831495
 H         2.329552         2.018109         1.104239
 H         2.104061         0.456410         2.217330
 H         4.244095         0.688468         0.577571
 H         3.604251        -1.946403         1.115760
 H         4.287583        -0.880251        -1.509312
 H         2.703448        -1.754223        -1.929438
 H         1.590618         1.238806        -2.245621
