19
Iteration:  3678charge 0 multiplicity 1
 C        -0.178906         0.017072        -0.095526
 C         1.307019         0.028567         0.198121
 C         2.032348         0.998692         1.164654
 C         3.257817         0.375590         0.528158
 C         3.156611        -1.130052         0.460185
 C         3.213605        -1.080619        -1.140749
 C         2.470549         0.254089        -0.902613
 O         2.379817         1.200235        -1.909511
 O         1.782699        -1.228443         0.587809
 H        -0.638072        -0.258185         0.792808
 H        -0.363676         1.002999        -0.356952
 H        -0.419879        -0.783353        -0.826682
 H         2.057542         2.060034         0.725336
 H         1.633710         1.107130         2.176824
 H         4.268161         0.672419         0.587016
 H         3.639704        -1.851602         1.159111
 H         4.305583        -0.911459        -1.494948
 H         2.840146        -1.962196        -1.701627
 H         1.499533         1.350751        -2.270421
