19
Iteration:     2
 C        -0.127384         0.127855        -0.243849
 C         1.309996         0.038088         0.145828
 C         2.015962         0.968898         1.162749
 C         3.306139         0.397062         0.520806
 C         3.072900        -1.178254         0.446367
 C         3.169059        -1.122438        -1.097327
 C         2.537136         0.251305        -0.864615
 O         2.470285         1.180510        -1.896512
 O         1.656610        -1.271625         0.667121
 H        -0.764586         0.004416         0.628157
 H        -0.306197         1.098238        -0.657966
 H        -0.397697        -0.596807        -0.972659
 H         1.924336         2.016432         0.933847
 H         1.826040         0.762518         2.225172
 H         4.310209         0.741943         0.582425
 H         3.628540        -1.926222         1.044923
 H         4.219741        -1.000525        -1.505995
 H         2.607391        -1.903711        -1.685279
 H         2.045289         2.000292        -1.572130
