19
Iteration:   431
 C        -0.213282         0.192268        -0.197348
 C         1.289315         0.056198         0.192963
 C         2.071048         0.981477         1.189353
 C         3.250673         0.396362         0.468503
 C         3.132822        -1.240834         0.407637
 C         3.224700        -1.203554        -1.076997
 C         2.539598         0.219799        -0.948102
 O         2.453778         1.313472        -1.820694
 O         1.647938        -1.281990         0.676846
 H        -0.892419        -0.068401         0.683939
 H        -0.424930         1.258970        -0.447892
 H        -0.410436        -0.456687        -1.159564
 H         2.099379         2.021774         0.788171
 H         1.881919         0.697578         2.211523
 H         4.291777         0.798837         0.737355
 H         3.543401        -2.047498         0.969064
 H         4.233123        -1.007631        -1.306807
 H         2.958686        -1.994955        -1.727103
 H         2.080386         1.011361        -2.681485
