19
Iteration:  1109
 C        -0.152387        -0.031535        -0.232752
 C         1.274756         0.030982         0.116140
 C         1.973125         0.982079         1.232989
 C         3.201282         0.463026         0.551343
 C         3.126603        -1.180051         0.423461
 C         3.264434        -0.990845        -1.090305
 C         2.542215         0.273967        -0.811679
 O         2.464425         1.178356        -1.881769
 O         1.631240        -1.303227         0.551066
 H        -0.832147        -0.018936         0.607799
 H        -0.579317         0.820920        -0.905858
 H        -0.311042        -0.986157        -0.731936
 H         1.804144         1.990007         0.877504
 H         1.877131         0.841330         2.292869
 H         4.208090         0.886792         0.723478
 H         3.695618        -1.832723         1.112084
 H         4.316818        -0.714550        -1.385173
 H         2.852931        -1.831315        -1.659150
 H         3.197409         1.801201        -1.723823
