19
Iteration:  4674charge 0 multiplicity 1
 C        -0.151578         0.014300        -0.104869
 C         1.303761         0.017359         0.171409
 C         2.000715         0.999585         1.127633
 C         3.349831         0.498562         0.508357
 C         3.120353        -1.179652         0.514336
 C         3.193231        -1.042581        -1.165012
 C         2.530817         0.269952        -0.860889
 O         2.395724         1.236855        -1.915119
 O         1.703769        -1.349212         0.629525
 H        -0.638940        -0.059247         0.823270
 H        -0.478542         0.872016        -0.600576
 H        -0.575020        -0.832548        -0.763135
 H         2.008381         2.105954         0.862634
 H         1.879151         0.790233         2.219306
 H         4.329951         0.944083         0.553587
 H         3.741929        -1.737018         1.236498
 H         4.197674        -0.975897        -1.522315
 H         2.681569        -1.767148        -1.865501
 H         1.627317         1.061178        -2.473071
