19
Iteration:   658charge 0 multiplicity 1
 C        -0.201145         0.112316        -0.260363
 C         1.269988         0.047404         0.127378
 C         2.071441         0.973305         1.147414
 C         3.350858         0.353914         0.498924
 C         3.143421        -1.164594         0.410412
 C         3.172616        -1.105120        -1.113862
 C         2.524862         0.223035        -0.836480
 O         2.458666         1.262113        -1.770297
 O         1.628860        -1.261246         0.681399
 H        -0.784002        -0.006599         0.727588
 H        -0.413925         1.083675        -0.662246
 H        -0.436137        -0.712456        -0.943217
 H         2.135524         2.132622         0.984395
 H         1.798867         0.714182         2.197720
 H         4.410951         0.633295         0.374693
 H         3.749271        -1.890805         0.941172
 H         4.267223        -0.970348        -1.467533
 H         2.582658        -1.890170        -1.690144
 H         1.832803         1.146629        -2.521697
