19
Iteration:  3808charge 0 multiplicity 1
 C        -0.009607         0.184581        -0.295042
 C         1.326289        -0.032792         0.185842
 C         2.030337         0.970434         1.185691
 C         3.380333         0.523829         0.449490
 C         3.271195        -1.141519         0.466732
 C         3.134972        -1.152710        -1.158971
 C         2.496107         0.231188        -0.827742
 O         2.101834         1.098603        -1.812533
 O         1.720665        -1.312957         0.657121
 H        -0.741606         0.095085         0.603505
 H        -0.202353         1.184693        -0.676770
 H        -0.417841        -0.436879        -1.170097
 H         1.761307         2.016078         0.959022
 H         1.978686         0.749665         2.172134
 H         4.235457         1.143563         0.685697
 H         3.951368        -1.747306         1.105139
 H         4.048651        -0.983150        -1.685556
 H         2.398124        -1.814867        -1.479432
 H         2.792235         1.748374        -1.905290
