19
Iteration:  4998
 C        -0.184881         0.114216        -0.170957
 C         1.277468         0.012115         0.162886
 C         2.035979         0.929721         1.229013
 C         3.208354         0.521331         0.445696
 C         3.139134        -1.094503         0.440781
 C         3.225856        -1.132507        -1.147818
 C         2.516112         0.212906        -0.936016
 O         2.417959         1.176169        -1.934668
 O         1.811797        -1.302999         0.758971
 H        -0.792626        -0.079145         0.741261
 H        -0.446524         1.116865        -0.496176
 H        -0.494246        -0.681221        -0.934362
 H         1.674084         2.039903         1.180625
 H         2.209965         0.547145         2.341967
 H         4.036747         1.164073         0.428896
 H         3.719916        -1.734616         1.123325
 H         4.119841        -0.965905        -1.708964
 H         2.691572        -2.031763        -1.712268
 H         1.525504         1.425754        -2.243526
