19
Iteration:  3776charge 0 multiplicity 1
 C        -0.083377         0.109327        -0.275516
 C         1.358075         0.040920         0.224138
 C         2.086735         0.954051         1.219752
 C         3.320871         0.375524         0.410059
 C         3.155358        -1.127506         0.422701
 C         3.252318        -1.085110        -1.180467
 C         2.455904         0.281288        -0.867762
 O         2.124944         1.209192        -1.865052
 O         1.682195        -1.303958         0.783045
 H        -0.687750        -0.104799         0.623192
 H        -0.305664         1.006830        -0.817023
 H        -0.203229        -0.746679        -1.046262
 H         2.035604         2.025584         0.952237
 H         2.009112         0.906993         2.255571
 H         4.233772         0.835124         0.702322
 H         3.910133        -1.707086         0.972855
 H         4.366127        -1.003340        -1.373349
 H         2.780759        -1.920884        -1.736423
 H         2.906893         1.176564        -2.457289
