19
Iteration:  2091charge 0 multiplicity 1
 C        -0.169996        -0.077166        -0.156664
 C         1.269636         0.002510         0.170976
 C         1.905197         0.862381         1.191135
 C         3.259471         0.470574         0.464456
 C         3.112132        -1.089055         0.466182
 C         3.165849        -1.019276        -1.088117
 C         2.502282         0.293156        -0.908661
 O         2.569409         1.279379        -1.890822
 O         1.693832        -1.293507         0.635352
 H        -0.792067        -0.229056         0.746454
 H        -0.529073         1.007309        -0.410301
 H        -0.452053        -0.634235        -0.968093
 H         1.676380         1.975175         1.190337
 H         1.717804         0.465492         2.202016
 H         4.273590         0.896192         0.697928
 H         3.816535        -1.570713         1.079414
 H         4.200946        -0.761012        -1.581652
 H         2.606706        -1.755989        -1.769555
 H         3.260799         1.050781        -2.578448
