19
Iteration:  3333
 C        -0.125443         0.054567        -0.263130
 C         1.321682         0.016396         0.185695
 C         2.100472         0.962089         1.192623
 C         3.331307         0.416099         0.445675
 C         3.085709        -1.145071         0.402700
 C         3.241847        -1.146207        -1.151485
 C         2.518849         0.225548        -0.859520
 O         2.199850         1.247444        -1.823644
 O         1.700961        -1.268963         0.687129
 H        -0.719326         0.015033         0.689600
 H        -0.327303         0.982965        -0.871889
 H        -0.490429        -0.741018        -0.908177
 H         1.885811         1.959091         0.944273
 H         2.048571         0.833516         2.238284
 H         4.378235         0.758118         0.359081
 H         3.637875        -1.661870         1.264638
 H         4.285972        -0.869447        -1.396761
 H         2.836811        -1.897830        -1.803796
 H         2.874180         1.894102        -1.570054
