19
Iteration:  1213charge 0 multiplicity 1
 C        -0.126256        -0.000362        -0.421569
 C         1.272885         0.055237         0.082171
 C         1.938555         0.873258         1.265078
 C         3.277589         0.423676         0.524822
 C         3.178549        -1.109028         0.448114
 C         3.248205        -1.139495        -1.036023
 C         2.539675         0.252220        -0.886248
 O         2.322616         1.251095        -1.799465
 O         1.716350        -1.183456         0.668432
 H        -0.772663        -0.425456         0.499395
 H        -0.457127         0.950769        -0.862985
 H        -0.210781        -0.771761        -1.282959
 H         1.836169         2.007666         1.188164
 H         1.746429         0.488110         2.276460
 H         4.253477         0.968829         0.760030
 H         3.618553        -1.849103         1.090008
 H         4.198649        -1.078870        -1.425626
 H         2.677820        -1.877894        -1.587479
 H         3.057330         1.777771        -2.080293
