19
Iteration:   644
 C        -0.148649         0.108414        -0.174669
 C         1.343269         0.087707         0.124608
 C         2.114982         1.027168         1.076852
 C         3.312269         0.339599         0.520746
 C         3.024801        -1.252956         0.476493
 C         3.170056        -1.140001        -1.078548
 C         2.556152         0.269102        -0.890551
 O         2.374494         1.359334        -1.786769
 O         1.679780        -1.341798         0.618018
 H        -0.835681        -0.196393         0.703348
 H        -0.660048         1.088788        -0.578571
 H        -0.307846        -0.632808        -0.963278
 H         1.986146         1.996800         0.625560
 H         1.979547         1.019232         2.150487
 H         4.218411         0.767130         0.806302
 H         3.548078        -1.994223         1.099036
 H         4.145200        -1.035619        -1.382984
 H         2.725169        -1.876536        -1.597236
 H         2.385430         0.853691        -2.625662
