19
Iteration:  3390charge 0 multiplicity 1
 C        -0.251311        -0.080101        -0.015078
 C         1.274903         0.069279         0.107756
 C         1.949181         0.962299         1.149618
 C         3.290873         0.440622         0.510721
 C         3.093572        -1.215424         0.345640
 C         3.225826        -1.036015        -1.181910
 C         2.613208         0.285692        -0.895903
 O         2.518723         1.315264        -1.928708
 O         1.667430        -1.292999         0.742434
 H        -0.732804        -0.121022         1.102890
 H        -0.641956         0.966109        -0.304472
 H        -0.579714        -0.867437        -0.588871
 H         1.674318         1.908054         0.875450
 H         1.870976         0.781010         2.189013
 H         4.249316         0.975660         0.818319
 H         3.773575        -1.833925         0.935922
 H         4.250498        -0.816389        -1.447589
 H         2.726055        -1.739372        -1.870496
 H         2.605516         0.813411        -2.788839
