19
Iteration:   380
 C        -0.153349         0.106739        -0.263578
 C         1.324550         0.102385         0.198533
 C         2.074069         0.966660         1.171335
 C         3.318809         0.395366         0.494557
 C         3.025453        -1.197151         0.420705
 C         3.137229        -1.218651        -1.084181
 C         2.537227         0.293715        -0.880189
 O         2.467817         1.318802        -1.837849
 O         1.693672        -1.318475         0.661022
 H        -0.787834         0.044903         0.567434
 H        -0.399520         1.104838        -0.725786
 H        -0.233875        -0.662809        -1.028281
 H         1.822777         2.000661         0.837636
 H         1.816380         0.835051         2.243471
 H         4.455026         0.677209         0.461371
 H         3.546258        -1.976516         1.037692
 H         4.242506        -1.235031        -1.379052
 H         2.741368        -2.158093        -1.557858
 H         1.577012         1.513493        -2.118250
