19
Iteration:   569charge 0 multiplicity 1
 C        -0.040786         0.160125        -0.211304
 C         1.307781         0.038083         0.249767
 C         2.046771         0.922555         1.238274
 C         3.273712         0.461269         0.474866
 C         3.023772        -1.160317         0.388250
 C         3.095028        -1.133404        -1.138441
 C         2.560505         0.308867        -0.862631
 O         2.514372         1.160386        -1.941581
 O         1.661133        -1.331145         0.668817
 H        -0.771637         0.105101         0.631986
 H        -0.267715         1.178923        -0.544984
 H        -0.262239        -0.532541        -0.971349
 H         1.832265         1.994336         1.028314
 H         2.015929         0.610086         2.310206
 H         4.238142         0.767910         0.640496
 H         3.572888        -1.802231         1.081345
 H         4.110266        -1.026869        -1.643841
 H         2.463914        -1.734328        -1.789832
 H         1.592527         1.534055        -1.853477
