19
Iteration:  4481
 C        -0.072510         0.002360        -0.299014
 C         1.318680         0.018236         0.239213
 C         2.099918         0.955797         1.223185
 C         3.327370         0.474166         0.397739
 C         3.182984        -1.164705         0.403649
 C         3.140941        -1.045502        -1.087713
 C         2.448829         0.258574        -0.784460
 O         2.327819         1.264511        -1.847360
 O         1.672938        -1.272782         0.705716
 H        -0.856028        -0.354825         0.423141
 H        -0.335642         0.931533        -0.758656
 H         0.009098        -0.831513        -1.093084
 H         1.965910         2.033695         0.925777
 H         1.938993         0.796261         2.280243
 H         4.382099         0.796240         0.434730
 H         3.828074        -1.840481         0.887626
 H         4.122145        -1.104410        -1.590894
 H         2.529988        -1.771370        -1.700802
 H         1.575419         1.030860        -2.450230
