19
Iteration:  3723
 C        -0.216837        -0.033788         0.058444
 C         1.316010        -0.038640         0.125803
 C         1.925880         0.960686         1.068863
 C         3.294683         0.437791         0.463985
 C         3.093516        -1.103155         0.462616
 C         3.180444        -1.137879        -1.167264
 C         2.513763         0.221428        -1.009151
 O         2.536011         1.386912        -1.895440
 O         1.737796        -1.260079         0.752827
 H        -0.671260        -0.184218         0.965264
 H        -0.415503         0.931129        -0.345273
 H        -0.503715        -0.931697        -0.609629
 H         1.627772         2.059965         0.951785
 H         1.786992         0.624671         2.145325
 H         4.199129         0.981542         0.625087
 H         3.774326        -1.766032         0.997057
 H         4.180236        -1.232228        -1.782997
 H         2.486529        -1.898202        -1.658315
 H         2.397959         1.250159        -2.850921
