19
Iteration:  3366
 C        -0.190999         0.018931        -0.060156
 C         1.287729        -0.055309         0.133171
 C         1.922586         0.948391         1.121124
 C         3.280975         0.425017         0.504219
 C         3.159085        -1.109208         0.408064
 C         3.160814        -1.137140        -1.167428
 C         2.491956         0.256062        -0.847376
 O         2.469881         1.338406        -1.863588
 O         1.748244        -1.291475         0.632361
 H        -0.560627         0.109797         0.996801
 H        -0.496161         1.014810        -0.491055
 H        -0.645632        -0.835991        -0.483816
 H         1.741040         1.897820         0.711330
 H         1.680649         0.897901         2.155086
 H         4.226294         0.994936         0.581992
 H         3.832189        -1.734137         1.084035
 H         4.135790        -0.941363        -1.644041
 H         2.579999        -1.902139        -1.661263
 H         3.196942         1.121560        -2.457526
