19
Iteration:  3219
 C        -0.191411         0.051442         0.112129
 C         1.296476        -0.015557         0.172723
 C         1.972172         1.081887         1.045232
 C         3.238412         0.478340         0.494811
 C         3.089735        -1.187904         0.379977
 C         3.217595        -1.060022        -1.121723
 C         2.546978         0.196922        -0.867939
 O         2.590537         1.213960        -1.886566
 O         1.678166        -1.339984         0.482134
 H        -0.363036        -0.276247         1.086758
 H        -0.685065         0.954070        -0.167166
 H        -0.598618        -0.901508        -0.474059
 H         1.759764         2.144082         0.609056
 H         1.874108         1.171749         2.183879
 H         4.329791         0.715318         0.643009
 H         3.394179        -1.928426         1.052185
 H         4.175967        -0.716261        -1.493260
 H         2.561839        -1.842709        -1.627736
 H         1.749811         1.684767        -1.744513
