19
Iteration:   555
 C        -0.137826         0.145822        -0.223199
 C         1.367293         0.048430         0.134947
 C         2.053194         0.975890         1.228279
 C         3.410615         0.350122         0.568164
 C         3.079439        -1.264953         0.437486
 C         3.110877        -1.045181        -1.143413
 C         2.584712         0.281498        -0.831761
 O         2.409540         1.208265        -1.924823
 O         1.619834        -1.250455         0.657734
 H        -0.693390        -0.023121         0.743736
 H        -0.336113         1.181298        -0.752435
 H        -0.486755        -0.700233        -0.909676
 H         1.943931         1.993039         0.917337
 H         1.750668         0.828706         2.290252
 H         4.466930         0.744505         0.625163
 H         3.650300        -2.102797         0.943202
 H         4.084676        -1.016411        -1.458830
 H         2.563488        -1.708935        -1.724807
 H         1.498860         1.115334        -2.253177
