19
Iteration:  3574
 C        -0.231972        -0.057830        -0.006229
 C         1.288396         0.061812         0.122140
 C         2.040304         0.937669         1.098305
 C         3.300912         0.468486         0.427544
 C         3.092234        -1.154378         0.505654
 C         3.259481        -1.197780        -1.136461
 C         2.505411         0.228046        -0.962272
 O         2.452973         1.434559        -1.876711
 O         1.705101        -1.279350         0.695614
 H        -0.599253        -0.294558         1.003800
 H        -0.750413         0.894763        -0.405038
 H        -0.409258        -0.851135        -0.744329
 H         1.702466         1.889267         0.791063
 H         1.854459         0.619101         2.135158
 H         4.349904         0.960126         0.462423
 H         3.586426        -1.843379         1.219782
 H         4.258671        -0.945075        -1.401830
 H         2.921855        -2.027381        -1.791034
 H         2.029347         1.226279        -2.762562
