19
Iteration:  3803charge 0 multiplicity 1
 C        -0.082518         0.172109        -0.304574
 C         1.407670        -0.032818         0.172026
 C         2.021195         0.959535         1.159832
 C         3.384640         0.511852         0.451278
 C         3.286549        -1.168978         0.509767
 C         3.101227        -1.161681        -1.158073
 C         2.515342         0.259513        -0.830086
 O         2.063681         1.120659        -1.837355
 O         1.738494        -1.278440         0.677909
 H        -0.781453         0.099223         0.547357
 H        -0.024017         1.200190        -0.758513
 H        -0.343176        -0.370028        -1.187483
 H         1.786251         2.037841         1.163997
 H         1.953460         0.579468         2.294200
 H         4.234143         1.125706         0.835660
 H         3.877250        -1.886713         1.092313
 H         4.095809        -0.942066        -1.658300
 H         2.497481        -2.050699        -1.595277
 H         2.777546         1.782457        -1.992111
