19
Iteration:  1031charge 0 multiplicity 1
 C        -0.150994         0.070331        -0.412181
 C         1.263119         0.062338         0.189479
 C         1.977308         0.905912         1.210031
 C         3.255079         0.427878         0.644415
 C         3.162059        -1.186344         0.398972
 C         3.276116        -1.056107        -1.122238
 C         2.533918         0.296088        -0.762585
 O         2.382814         1.186431        -1.920740
 O         1.721802        -1.324980         0.670687
 H        -0.862593        -0.064964         0.412391
 H        -0.621813         1.000315        -0.892785
 H        -0.239481        -0.675124        -1.225324
 H         2.036185         1.977095         0.973954
 H         1.661396         0.921439         2.187610
 H         4.330604         0.908095         0.816004
 H         3.725726        -1.859356         1.007786
 H         4.355019        -0.935755        -1.492352
 H         2.658105        -1.857505        -1.639446
 H         2.012750         2.087459        -1.704204
