19
Iteration:   585
 C        -0.189366         0.220131        -0.205981
 C         1.303607        -0.015364         0.226654
 C         2.046138         0.919054         1.261686
 C         3.281568         0.390800         0.447361
 C         3.184989        -1.136599         0.414758
 C         3.118170        -1.122732        -1.133353
 C         2.464027         0.194241        -0.916371
 O         2.513365         1.213608        -1.948535
 O         1.657696        -1.292988         0.694719
 H        -0.991518        -0.027004         0.463170
 H        -0.276092         1.263755        -0.584136
 H        -0.330220        -0.423341        -1.141345
 H         1.823184         1.993852         1.305069
 H         1.938658         0.631213         2.306365
 H         4.332920         0.939825         0.475929
 H         3.826413        -1.886647         0.903967
 H         4.175619        -1.144198        -1.449366
 H         2.516423        -2.081104        -1.356213
 H         2.266454         2.136994        -1.810710
