19
Iteration:  3791charge 0 multiplicity 1
 C        -0.079921         0.170824        -0.321119
 C         1.352201         0.022643         0.149571
 C         2.072425         0.906056         1.204604
 C         3.331977         0.444953         0.530290
 C         3.164999        -1.135896         0.417798
 C         3.174403        -1.132347        -1.070854
 C         2.540020         0.233878        -0.917886
 O         2.036412         1.188619        -1.876735
 O         1.827654        -1.268431         0.768120
 H        -0.845513         0.078483         0.401019
 H        -0.167563         1.241981        -0.679945
 H        -0.307391        -0.623334        -1.069464
 H         1.878190         1.997060         1.090653
 H         1.827392         0.476285         2.272127
 H         4.395722         0.776592         0.461336
 H         3.695104        -1.867188         1.022812
 H         4.214069        -1.104809        -1.574871
 H         2.599601        -1.992574        -1.609441
 H         2.730727         1.705832        -2.286693
