19
Iteration:  3560
 C        -0.276331        -0.024813         0.025546
 C         1.235487        -0.015902         0.124549
 C         1.975660         1.009417         1.070221
 C         3.242317         0.383099         0.379495
 C         3.198532        -1.115413         0.402909
 C         3.262421        -1.147380        -1.088679
 C         2.437186         0.246662        -0.923002
 O         2.524301         1.343745        -1.772574
 O         1.748700        -1.250772         0.609584
 H        -0.715719        -0.211291         0.990651
 H        -0.697809         0.992971        -0.310012
 H        -0.735508        -0.985470        -0.611287
 H         2.018935         2.157202         0.902671
 H         1.863169         0.924192         2.210068
 H         4.173320         0.898519         0.337159
 H         3.774259        -1.776299         1.078544
 H         4.260740        -0.847073        -1.501321
 H         2.888494        -2.080078        -1.540876
 H         2.428944         0.951625        -2.648701
