19
Iteration:  4491charge 0 multiplicity 1
 C        -0.092446        -0.005532        -0.239912
 C         1.327072         0.015674         0.274223
 C         2.078061         0.968649         1.174273
 C         3.267062         0.423069         0.519488
 C         3.143307        -1.166913         0.434258
 C         3.118921        -1.059422        -1.153285
 C         2.511739         0.304307        -0.869337
 O         2.359809         1.278581        -1.879153
 O         1.737006        -1.307671         0.661289
 H        -0.692902        -0.194605         0.672803
 H        -0.392333         0.935712        -0.657262
 H        -0.268561        -0.831557        -1.079846
 H         1.946049         1.984508         0.673027
 H         2.078114         1.058868         2.258665
 H         4.193611         0.999564         0.679084
 H         3.665956        -1.833135         1.107894
 H         4.143058        -0.912370        -1.576968
 H         2.440080        -1.774313        -1.711392
 H         1.624427         0.811335        -2.359640
