19
Iteration:   512
 C        -0.090916         0.183623        -0.200032
 C         1.324426        -0.055921         0.146234
 C         2.092401         1.014811         1.017765
 C         3.293453         0.442668         0.361225
 C         3.070566        -1.215684         0.409286
 C         3.198691        -1.141584        -1.062525
 C         2.504516         0.215550        -0.857879
 O         2.415221         1.338035        -1.696248
 O         1.611027        -1.361575         0.728560
 H        -0.741131         0.181372         0.692551
 H        -0.159449         1.208059        -0.732442
 H        -0.575286        -0.525455        -0.879323
 H         1.803478         2.025993         0.966000
 H         2.057397         0.755708         2.104750
 H         4.293661         0.867117         0.218003
 H         3.462554        -2.073281         1.033067
 H         4.200509        -1.112291        -1.368421
 H         2.539403        -1.795215        -1.520469
 H         2.506750         1.057283        -2.598207
