19
Iteration:  4446
 C        -0.089245         0.087199        -0.320584
 C         1.326521        -0.038577         0.132221
 C         2.036882         0.936028         1.145805
 C         3.326268         0.425283         0.431852
 C         3.218431        -1.157542         0.422596
 C         3.179953        -1.179874        -1.111378
 C         2.506668         0.279274        -0.893655
 O         2.252806         1.323002        -1.745985
 O         1.738483        -1.262263         0.814719
 H        -0.856364        -0.290328         0.345441
 H        -0.331782         1.070925        -0.711234
 H        -0.110763        -0.620592        -1.315880
 H         1.947935         2.019385         0.764645
 H         1.747668         0.828224         2.226404
 H         4.362427         0.844966         0.367044
 H         3.918537        -1.834608         1.054621
 H         4.168024        -1.138119        -1.595998
 H         2.356504        -1.858077        -1.466604
 H         1.401950         1.322081        -2.245056
