19
Iteration:  2937
 C        -0.118806        -0.054652        -0.173659
 C         1.323449         0.022743         0.209188
 C         1.987968         0.958846         1.220239
 C         3.281042         0.443605         0.522459
 C         3.127886        -1.148077         0.387678
 C         3.153436        -1.045100        -1.153133
 C         2.539489         0.312536        -0.858909
 O         2.396822         1.199476        -1.931667
 O         1.670377        -1.276965         0.622526
 H        -0.733571        -0.421587         0.546460
 H        -0.366736         0.936199        -0.434480
 H        -0.266349        -0.788001        -1.078413
 H         1.818626         2.091575         1.126926
 H         2.041037         0.717023         2.306718
 H         4.303497         0.912474         0.712483
 H         3.844685        -1.841924         0.854334
 H         4.159115        -1.000691        -1.460658
 H         2.586900        -1.837152        -1.640845
 H         2.526449         2.124354        -1.645941
