19
Iteration:   529charge 0 multiplicity 1
 C        -0.145014         0.169804        -0.198458
 C         1.335128         0.090995         0.149178
 C         2.084939         1.012016         1.167689
 C         3.340084         0.324838         0.459908
 C         3.052010        -1.220007         0.467991
 C         3.213272        -1.224244        -1.137625
 C         2.559549         0.172987        -0.908758
 O         2.322415         1.331955        -1.732848
 O         1.638771        -1.253471         0.625966
 H        -0.748506         0.067969         0.702653
 H        -0.288449         1.100023        -0.765315
 H        -0.435191        -0.702480        -0.873877
 H         2.035541         1.995313         0.620361
 H         1.932296         0.960294         2.249552
 H         4.405340         0.726690         0.652832
 H         3.645711        -1.789735         1.155980
 H         4.322910        -0.958912        -1.381589
 H         2.930364        -2.110964        -1.832076
 H         2.062593         1.076670        -2.618126
