19
Iteration:  3424
 C        -0.152251         0.010990        -0.163140
 C         1.298402         0.049039         0.197150
 C         2.043363         0.978593         1.181603
 C         3.243189         0.476838         0.399349
 C         3.157711        -1.111959         0.452890
 C         3.223266        -1.149788        -1.095424
 C         2.455810         0.217178        -0.868907
 O         2.470627         1.249695        -1.799541
 O         1.685258        -1.304750         0.574863
 H        -0.773718        -0.456017         0.778711
 H        -0.466184         1.041044        -0.422579
 H        -0.395773        -0.551720        -1.083649
 H         1.753799         1.983783         1.037609
 H         2.057558         0.778768         2.237545
 H         4.238163         0.984724         0.466863
 H         3.884205        -1.540831         1.085822
 H         4.113428        -0.832973        -1.610077
 H         2.763205        -2.020177        -1.619322
 H         1.628812         1.376080        -2.325196
