19
Iteration:  1027
 C        -0.135382         0.060819        -0.397972
 C         1.308247         0.058211         0.186068
 C         1.937916         0.954781         1.245162
 C         3.259382         0.411059         0.671657
 C         3.109405        -1.186267         0.370811
 C         3.264530        -1.043388        -1.145204
 C         2.570497         0.312349        -0.760804
 O         2.378608         1.163482        -1.949852
 O         1.729089        -1.314574         0.667863
 H        -0.850417        -0.222594         0.420942
 H        -0.394719         0.974229        -0.808173
 H        -0.274819        -0.638942        -1.233738
 H         1.949374         2.060384         0.965645
 H         1.570782         0.886116         2.340259
 H         4.284419         0.842713         0.789338
 H         3.742238        -1.861962         0.976239
 H         4.356392        -1.003625        -1.430824
 H         2.668369        -1.869142        -1.738249
 H         1.979327         1.967987        -1.614788
