19
Iteration:  2892
 C        -0.247554         0.075758         0.042012
 C         1.196822        -0.070208         0.151893
 C         1.927405         0.960832         1.102078
 C         3.179577         0.461414         0.451263
 C         3.170616        -1.139821         0.346217
 C         3.337610        -1.063107        -1.138113
 C         2.480730         0.237845        -0.932885
 O         2.570524         1.212065        -1.819408
 O         1.751062        -1.314611         0.595263
 H        -0.721104        -0.137249         0.855561
 H        -0.398154         1.107547        -0.221958
 H        -0.579482        -0.714094        -0.723972
 H         1.762806         2.080989         0.857111
 H         1.468503         0.749235         2.080051
 H         4.227250         0.980506         0.287499
 H         3.698700        -1.842618         1.067627
 H         4.308058        -0.738082        -1.494095
 H         2.938590        -1.868171        -1.733301
 H         2.140691         1.995917        -1.471371
