19
Iteration:   396
 C        -0.066560         0.208835        -0.213272
 C         1.342893        -0.122735         0.153224
 C         1.988033         0.998107         1.067773
 C         3.260617         0.443000         0.445090
 C         3.149863        -1.173824         0.456310
 C         3.116021        -1.180011        -1.110604
 C         2.550987         0.183322        -0.885278
 O         2.514356         1.325980        -1.773231
 O         1.620154        -1.346582         0.684439
 H        -0.761884         0.006691         0.674446
 H        -0.136122         1.242227        -0.481249
 H        -0.439402        -0.398625        -1.076887
 H         1.894811         2.072616         0.842126
 H         1.843084         1.059870         2.155784
 H         4.136605         0.936424         0.723606
 H         3.777417        -1.793200         1.068245
 H         4.086396        -1.149608        -1.663939
 H         2.309574        -1.790263        -1.564026
 H         1.570023         1.390471        -2.021983
