19
Iteration:  4693charge 0 multiplicity 1
 C        -0.209550        -0.038304        -0.022151
 C         1.258109         0.039837         0.195441
 C         2.079970         0.940665         1.212758
 C         3.207923         0.441982         0.421686
 C         3.122753        -1.087962         0.360413
 C         3.255607        -1.097263        -1.034127
 C         2.490870         0.284513        -0.932605
 O         2.516268         1.228641        -1.918493
 O         1.683688        -1.228573         0.611427
 H        -0.823038        -0.157551         0.909347
 H        -0.562498         0.876620        -0.550499
 H        -0.442587        -0.941711        -0.558655
 H         1.733642         1.927034         0.994414
 H         1.842275         0.673323         2.204286
 H         4.217907         0.844093         0.396030
 H         3.833867        -1.763746         0.949688
 H         4.215660        -0.813410        -1.500693
 H         3.012829        -2.042566        -1.553820
 H         1.836240         1.135740        -2.603091
