19
Iteration:  2352
 C        -0.149068         0.090101        -0.340686
 C         1.298996        -0.082434         0.163646
 C         1.843432         0.942831         1.093334
 C         3.235977         0.455991         0.488748
 C         3.249727        -1.155443         0.470535
 C         3.211617        -1.097577        -1.161287
 C         2.543693         0.237732        -0.839151
 O         2.425738         1.305655        -1.662170
 O         1.777024        -1.319096         0.707005
 H        -0.833602         0.101693         0.482611
 H        -0.217837         1.162850        -0.849060
 H        -0.506972        -0.676210        -1.087139
 H         1.520121         1.963836         0.720025
 H         1.706069         0.847174         2.183048
 H         4.221609         1.019193         0.365710
 H         3.881864        -1.869915         1.013600
 H         4.158929        -0.826011        -1.622577
 H         2.715818        -1.779823        -1.823441
 H         1.831857         1.108967        -2.393687
