19
Iteration:  3682charge 0 multiplicity 1
 C        -0.195137        -0.005705        -0.060913
 C         1.276046         0.042576         0.223052
 C         2.059327         1.005572         1.148792
 C         3.252285         0.399079         0.516945
 C         3.183901        -1.104657         0.483509
 C         3.226775        -1.048027        -1.199071
 C         2.432445         0.221339        -0.922681
 O         2.436986         1.199258        -1.898623
 O         1.772729        -1.257431         0.590769
 H        -0.775219        -0.295742         0.869366
 H        -0.427760         1.093227        -0.445989
 H        -0.491102        -0.814695        -0.875885
 H         1.991141         2.076376         0.778573
 H         1.566467         1.131191         2.223367
 H         4.351830         0.606138         0.617730
 H         3.510563        -1.878695         1.166090
 H         4.268113        -0.937865        -1.458289
 H         2.784624        -1.969334        -1.665256
 H         1.573734         1.333478        -2.369800
