19
Iteration:  2070
 C        -0.264380        -0.017113        -0.161096
 C         1.229140        -0.088711         0.198322
 C         1.930783         0.952205         1.210123
 C         3.189803         0.500059         0.541270
 C         3.124996        -1.125893         0.364712
 C         3.250970        -1.067114        -1.110378
 C         2.543490         0.344343        -0.894765
 O         2.658347         1.341225        -1.919853
 O         1.729479        -1.379487         0.664932
 H        -0.844025        -0.312140         0.824770
 H        -0.655934         1.033298        -0.439826
 H        -0.463299        -0.592122        -0.931707
 H         1.638682         2.030590         0.881350
 H         1.699351         0.736267         2.280088
 H         4.096041         1.163016         0.669709
 H         3.663589        -1.771827         0.999682
 H         4.352125        -1.200205        -1.458595
 H         2.609243        -1.878972        -1.609328
 H         2.180105         0.967870        -2.722600
