19
Iteration:   930
 C        -0.170195        -0.031285        -0.207309
 C         1.301074         0.027600         0.121879
 C         1.951875         0.982344         1.129228
 C         3.261328         0.432708         0.658984
 C         3.087462        -1.185942         0.448059
 C         3.276139        -1.133800        -1.124392
 C         2.626473         0.336177        -0.867089
 O         2.524709         1.324515        -1.886279
 O         1.621565        -1.302908         0.607555
 H        -0.785088        -0.468330         0.632873
 H        -0.467340         0.844162        -0.649053
 H        -0.366282        -0.826917        -0.987040
 H         1.783736         2.024762         0.823992
 H         1.761145         0.914362         2.146689
 H         4.283664         0.964350         0.974808
 H         3.505950        -1.936860         1.157527
 H         4.263283        -1.033460        -1.663898
 H         2.611604        -1.911344        -1.690234
 H         1.594827         1.488537        -2.007411
