19
Iteration:  1326
 C        -0.077133         0.110247        -0.364375
 C         1.253787        -0.021324         0.177371
 C         1.836690         0.921236         1.205603
 C         3.198557         0.419324         0.605487
 C         3.166747        -1.134409         0.323523
 C         3.239671        -1.046013        -1.167430
 C         2.578738         0.273310        -0.825853
 O         2.349233         1.184830        -1.845946
 O         1.786212        -1.321543         0.792058
 H        -1.085756        -0.124448         0.202531
 H        -0.197253         1.185828        -0.687650
 H        -0.156867        -0.507444        -1.226526
 H         1.749478         1.982470         0.877518
 H         1.565927         0.775233         2.294081
 H         4.150429         1.021135         0.621936
 H         3.799061        -1.821299         0.949400
 H         4.264233        -0.914425        -1.442881
 H         2.694075        -1.665482        -1.851953
 H         3.207758         1.513872        -2.123900
