19
Iteration:   698charge 0 multiplicity 1
 C        -0.127295         0.136975        -0.296770
 C         1.324127        -0.036682         0.172435
 C         2.020076         0.921317         1.218735
 C         3.350937         0.402597         0.504691
 C         3.127193        -1.142425         0.428110
 C         3.112283        -1.076451        -1.084015
 C         2.528638         0.341074        -0.846411
 O         2.429292         1.215601        -1.982766
 O         1.662732        -1.379677         0.718778
 H        -0.779900         0.262974         0.597861
 H        -0.099481         1.054066        -0.987252
 H        -0.594317        -0.629168        -0.890301
 H         1.902770         1.925619         0.995265
 H         1.728276         0.785125         2.235074
 H         4.311828         0.761012         0.697643
 H         3.719491        -1.765100         1.094930
 H         3.996239        -1.095099        -1.590451
 H         2.452001        -1.761114        -1.426686
 H         2.388238         2.055071        -1.475967
