19
Iteration:  4684charge 0 multiplicity 1
 C        -0.208902         0.006955        -0.046618
 C         1.310698         0.001716         0.194437
 C         2.015308         0.969395         1.158965
 C         3.322842         0.439086         0.422538
 C         3.127290        -1.103285         0.486258
 C         3.215548        -1.033640        -1.091527
 C         2.465707         0.254992        -0.919977
 O         2.477935         1.240716        -1.926719
 O         1.712106        -1.272379         0.588215
 H        -0.740888        -0.109324         0.861684
 H        -0.593624         0.822634        -0.584640
 H        -0.237396        -0.948580        -0.638278
 H         1.579648         1.990163         1.003182
 H         2.080760         0.750752         2.216469
 H         4.334855         0.707781         0.625304
 H         3.482114        -1.969471         1.088929
 H         4.197676        -0.696396        -1.351507
 H         2.712913        -1.894111        -1.624986
 H         1.695494         0.971402        -2.441821
