19
Iteration:  4539
 C        -0.271425         0.024626         0.077103
 C         1.274438        -0.071100         0.118741
 C         2.014488         0.991465         1.101298
 C         3.251262         0.494894         0.377448
 C         3.117771        -1.039941         0.453760
 C         3.295228        -1.129925        -1.113728
 C         2.405111         0.154945        -1.002139
 O         2.551350         1.345992        -1.792602
 O         1.710228        -1.362560         0.592603
 H        -0.786874         0.044650         1.073236
 H        -0.392507         1.054485        -0.433894
 H        -0.644700        -0.632810        -0.616224
 H         1.785730         2.021634         1.040238
 H         1.882261         0.673750         2.151419
 H         4.343875         0.693580         0.397668
 H         3.757671        -1.651381         1.125895
 H         4.316135        -0.650660        -1.287020
 H         3.027857        -2.098218        -1.618224
 H         2.012421         1.244021        -2.594267
