19
Iteration:  1813
 C        -0.122065         0.149450        -0.412223
 C         1.277747        -0.076790         0.085610
 C         1.919558         1.002776         1.061197
 C         3.271717         0.430510         0.516760
 C         3.189093        -1.174137         0.482347
 C         3.334570        -1.133792        -1.068002
 C         2.593736         0.213657        -0.875312
 O         2.185774         1.321301        -1.596759
 O         1.721528        -1.327245         0.645540
 H        -0.721903         0.065892         0.402211
 H        -0.274664         0.991864        -0.912841
 H        -0.371160        -0.692798        -1.177991
 H         1.881934         2.018601         0.719195
 H         1.749926         0.853828         2.164383
 H         4.240165         0.950014         0.651507
 H         3.709719        -1.883048         1.116775
 H         4.501838        -1.105370        -1.354769
 H         2.805400        -2.085817        -1.492609
 H         2.906055         1.575607        -2.179381
