19
Iteration:  2978charge 0 multiplicity 1
 C        -0.034201         0.000004        -0.387653
 C         1.313467        -0.052477         0.234499
 C         2.095539         0.919656         1.193138
 C         3.316951         0.455171         0.488628
 C         3.145833        -1.165503         0.386256
 C         3.120750        -1.096236        -1.110353
 C         2.576456         0.297885        -0.877515
 O         2.244702         1.282592        -1.865440
 O         1.702733        -1.270018         0.780920
 H        -0.802127        -0.069035         0.348271
 H        -0.250484         1.042693        -0.813843
 H        -0.210084        -0.587478        -1.342939
 H         1.709338         1.879230         0.904082
 H         1.954018         0.781737         2.218688
 H         4.407325         0.794319         0.723071
 H         3.652625        -1.888592         1.053854
 H         4.179242        -1.034931        -1.519599
 H         2.580663        -1.804712        -1.782976
 H         1.730386         1.915236        -1.364205
