19
Iteration:  3851charge 0 multiplicity 1
 C        -0.246564         0.004935        -0.082174
 C         1.349306         0.012131         0.116092
 C         2.076600         0.929585         1.094785
 C         3.317985         0.416007         0.471211
 C         3.140888        -1.139450         0.402827
 C         3.269297        -1.101436        -1.180674
 C         2.528322         0.238468        -0.918414
 O         2.308768         1.297621        -1.863938
 O         1.635805        -1.220889         0.797267
 H        -0.469283        -0.272168         1.024688
 H        -0.738658         0.851490        -0.551440
 H        -0.481153        -0.815890        -0.793084
 H         2.026792         1.988716         0.807346
 H         1.819129         0.787933         2.093792
 H         4.281454         0.883607         0.392642
 H         3.649932        -1.955132         0.967464
 H         4.283384        -0.898046        -1.423707
 H         2.714882        -1.869790        -1.659885
 H         3.089097         1.288615        -2.438529
