19
Iteration:  4705charge 0 multiplicity 1
 C        -0.266500        -0.041338        -0.017410
 C         1.241004         0.054989         0.174154
 C         1.958862         0.981926         1.214878
 C         3.253975         0.498540         0.407995
 C         3.160498        -1.102437         0.426441
 C         3.286834        -1.161429        -1.221921
 C         2.455287         0.237591        -0.934898
 O         2.565457         1.281461        -1.913658
 O         1.705932        -1.295865         0.684756
 H        -0.650355        -0.042253         0.991905
 H        -0.641675         0.864833        -0.476410
 H        -0.601627        -0.869116        -0.662831
 H         2.189605         2.020860         1.228109
 H         1.952073         0.659109         2.214133
 H         4.139767         1.105893         0.413250
 H         3.718916        -1.635724         1.255730
 H         4.332554        -0.981156        -1.337782
 H         2.761600        -1.992742        -1.762018
 H         1.908504         1.024043        -2.604459
