19
Iteration:  4758charge 0 multiplicity 1
 C        -0.163123        -0.035604        -0.196182
 C         1.350315         0.079938         0.184386
 C         2.061911         1.055762         1.088466
 C         3.308467         0.479644         0.453182
 C         3.118829        -1.213908         0.417454
 C         3.198173        -1.107791        -1.140439
 C         2.524287         0.208914        -0.881639
 O         2.311380         1.268373        -1.754322
 O         1.732607        -1.278581         0.711025
 H        -0.913086        -0.257879         0.667170
 H        -0.445702         1.026899        -0.504225
 H        -0.316323        -0.787919        -0.968659
 H         1.853878         2.039458         0.706923
 H         1.936149         1.046597         2.143122
 H         4.362397         0.582909         0.352808
 H         3.795041        -1.618364         1.219804
 H         4.193665        -0.958450        -1.658422
 H         2.621933        -1.989674        -1.536150
 H         1.950167         1.014157        -2.631227
