19
Iteration:  4715
 C        -0.292074         0.023080        -0.021615
 C         1.254711        -0.028896         0.131416
 C         1.948250         1.016089         1.138678
 C         3.259988         0.454681         0.383142
 C         3.163952        -1.098016         0.493107
 C         3.208954        -1.118187        -1.194987
 C         2.538588         0.214604        -0.948362
 O         2.557392         1.306434        -1.876536
 O         1.775826        -1.292597         0.733439
 H        -0.766320        -0.212327         0.978275
 H        -0.685492         1.002238        -0.377159
 H        -0.544980        -0.894293        -0.533952
 H         1.525974         2.010423         1.107829
 H         1.905370         0.633502         2.126116
 H         4.222716         0.916902         0.543057
 H         3.665921        -1.924768         1.102016
 H         4.182033        -0.960544        -1.718966
 H         2.682634        -1.855323        -1.860701
 H         2.030550         1.043136        -2.660286
