19
Iteration:  2962charge 0 multiplicity 1
 C        -0.142383        -0.016343        -0.390787
 C         1.307177         0.097550         0.193291
 C         2.103033         0.984973         1.231924
 C         3.358887         0.356466         0.490786
 C         3.137909        -1.170980         0.421484
 C         3.169337        -1.017191        -1.141337
 C         2.453300         0.289599        -0.804310
 O         2.275842         1.181747        -1.848700
 O         1.728995        -1.273188         0.705526
 H        -0.983123        -0.541172         0.229399
 H        -0.454110         0.923503        -0.834954
 H         0.003643        -0.792407        -1.115034
 H         2.271404         2.077738         1.221325
 H         1.956365         0.667082         2.331632
 H         4.288530         0.802830         0.457592
 H         3.790270        -1.907220         0.860684
 H         4.181532        -0.793437        -1.463351
 H         2.628865        -1.811885        -1.641304
 H         2.114423         2.081512        -1.572938
