19
Iteration:  1353
 C        -0.065203         0.060862        -0.409191
 C         1.300009        -0.000793         0.088059
 C         2.029057         0.955629         1.174337
 C         3.248672         0.444422         0.529417
 C         3.119200        -1.094442         0.517730
 C         3.185277        -1.121073        -0.998477
 C         2.579883         0.251947        -0.870327
 O         2.237306         1.309023        -1.754254
 O         1.732487        -1.372252         0.632805
 H        -0.732813        -0.428033         0.204241
 H        -0.506296         1.027452        -0.647039
 H        -0.208806        -0.477920        -1.408033
 H         1.743710         1.995550         0.983591
 H         1.945590         0.684179         2.211320
 H         4.251323         0.834733         0.475996
 H         3.662776        -1.772644         1.153215
 H         4.319650        -0.950292        -1.373089
 H         2.731266        -1.922094        -1.644844
 H         3.032835         1.595745        -2.190582
