19
Iteration:  1512
 C        -0.102835         0.082805        -0.487609
 C         1.348297        -0.035069         0.078315
 C         1.915298         0.886300         1.161972
 C         3.238511         0.476966         0.488326
 C         3.194154        -1.123689         0.451225
 C         3.186954        -1.132775        -1.062786
 C         2.568375         0.265961        -0.832968
 O         2.279829         1.287202        -1.726074
 O         1.737252        -1.270581         0.747317
 H        -0.761927        -0.372924         0.348015
 H        -0.334706         1.187017        -0.708701
 H        -0.163638        -0.539860        -1.294052
 H         1.741530         1.936560         1.082365
 H         1.613575         0.467142         2.159941
 H         4.220625         0.834723         0.549725
 H         3.724378        -1.796226         1.126245
 H         4.255640        -1.014683        -1.473376
 H         2.665651        -2.038164        -1.374999
 H         3.101149         1.561841        -2.114209
