19
Iteration:   232
 C        -0.133806         0.166857        -0.258172
 C         1.293715         0.096864         0.167402
 C         1.986897         0.950967         1.219589
 C         3.303480         0.402711         0.508797
 C         3.107590        -1.184219         0.374337
 C         3.084039        -1.199420        -1.184671
 C         2.527742         0.237369        -0.866347
 O         2.541204         1.176414        -1.894404
 O         1.708152        -1.218587         0.713692
 H        -0.655064        -0.080935         0.776480
 H        -0.428602         1.180031        -0.642597
 H        -0.290311        -0.659015        -0.991885
 H         1.662978         1.966385         1.294635
 H         1.726679         0.622655         2.243731
 H         4.283809         0.729719         0.743053
 H         3.717258        -1.923122         0.999536
 H         4.035465        -1.036180        -1.462233
 H         2.662671        -2.035199        -1.603076
 H         1.794552         1.791024        -1.810742
