19
Iteration:  1499
 C        -0.034760         0.038279        -0.415818
 C         1.289499        -0.025315         0.063428
 C         1.969619         0.953989         1.051652
 C         3.313180         0.440557         0.542272
 C         3.080463        -1.106924         0.506740
 C         3.248721        -1.092267        -1.040554
 C         2.508601         0.201568        -0.827803
 O         2.243323         1.257224        -1.646998
 O         1.731048        -1.293637         0.636632
 H        -0.888042        -0.157155         0.343020
 H        -0.190358         1.047928        -0.678323
 H        -0.317528        -0.445276        -1.287805
 H         1.737613         1.991549         0.836847
 H         1.875724         0.774105         2.146475
 H         4.248713         0.997112         0.758801
 H         3.735242        -1.731052         1.110397
 H         4.399381        -0.923202        -1.397381
 H         2.775253        -1.792189        -1.804884
 H         3.047634         1.431889        -2.218779
