19
Iteration:  4249charge 0 multiplicity 1
 C        -0.135151        -0.003719        -0.101784
 C         1.352274         0.042383         0.150779
 C         2.023543         0.946444         1.179721
 C         3.299406         0.496798         0.506459
 C         3.091871        -1.123746         0.431567
 C         3.197351        -1.071003        -1.143193
 C         2.538533         0.286551        -0.939373
 O         2.355169         1.206250        -1.985126
 O         1.738831        -1.345976         0.746641
 H        -0.757565        -0.206931         0.734214
 H        -0.399592         0.913145        -0.518943
 H        -0.421843        -0.579380        -1.045376
 H         1.678037         1.963904         1.020552
 H         1.805876         0.722239         2.250480
 H         4.318509         0.835128         0.547952
 H         3.613990        -1.958317         1.012739
 H         4.192371        -0.878722        -1.572645
 H         2.739033        -1.880251        -1.789156
 H         1.845227         1.950703        -1.644399
