19
Iteration:  1142
 C        -0.201428         0.064166        -0.329582
 C         1.315045        -0.054500         0.033488
 C         1.962192         0.845937         1.181667
 C         3.172003         0.433470         0.531015
 C         3.156968        -1.106611         0.484997
 C         3.262714        -1.074785        -1.018797
 C         2.576326         0.269970        -0.872876
 O         2.367520         1.328360        -1.856560
 O         1.697657        -1.295789         0.696792
 H        -0.607212        -0.294688         0.584386
 H        -0.269612         1.221978        -0.588390
 H        -0.488414        -0.498066        -1.209291
 H         1.829671         1.884380         0.948927
 H         1.822496         0.602686         2.230030
 H         4.181692         0.810880         0.740549
 H         3.785140        -1.690991         1.202298
 H         4.358311        -0.981503        -1.391433
 H         2.779763        -1.947018        -1.504935
 H         3.157399         1.375234        -2.381281
