19
Iteration:  4062charge 0 multiplicity 1
 C        -0.263117         0.040631         0.010917
 C         1.280032        -0.004776         0.202055
 C         2.002985         0.954949         1.099139
 C         3.272136         0.471344         0.451221
 C         3.161899        -1.181808         0.451482
 C         3.316287        -1.101794        -1.159164
 C         2.581778         0.260311        -0.931462
 O         2.337340         1.279297        -1.947849
 O         1.680879        -1.313222         0.679189
 H        -0.671725        -0.135716         0.977981
 H        -0.747467         0.921036        -0.509623
 H        -0.671923        -0.770365        -0.798908
 H         1.893284         2.001262         0.826848
 H         1.872097         0.916258         2.216883
 H         4.281001         0.799559         0.740663
 H         3.561819        -1.806941         1.223397
 H         4.347483        -0.710614        -1.493810
 H         3.002533        -1.936864        -1.762078
 H         3.138439         1.531404        -2.423739
