19
Iteration:   182charge 0 multiplicity 1
 C        -0.079606         0.144629        -0.200848
 C         1.355930         0.113835         0.107674
 C         2.039092         1.037670         1.111417
 C         3.246349         0.338008         0.526735
 C         3.044254        -1.212769         0.426946
 C         3.242636        -1.154213        -1.125927
 C         2.555195         0.183797        -0.857442
 O         2.292465         1.191783        -1.782640
 O         1.645094        -1.265842         0.642907
 H        -0.699719        -0.014146         0.613608
 H        -0.199958         1.112000        -0.639146
 H        -0.176033        -0.612213        -0.993633
 H         2.093600         2.137341         0.823272
 H         1.620801         1.027948         2.113199
 H         4.316264         0.775983         0.668679
 H         3.628868        -1.801141         1.070567
 H         4.401540        -1.124521        -1.475214
 H         2.544858        -1.921173        -1.691939
 H         3.137812         1.721815        -1.922064
