19
Iteration:  1340charge 0 multiplicity 1
 C        -0.074229         0.076710        -0.438583
 C         1.347228        -0.072527         0.159959
 C         1.901429         0.918000         1.175952
 C         3.288843         0.540593         0.479667
 C         3.158099        -1.206771         0.465879
 C         3.226401        -1.053541        -1.137134
 C         2.475322         0.240795        -0.812061
 O         2.305146         1.241275        -1.774895
 O         1.702680        -1.289609         0.739672
 H        -0.716609        -0.248790         0.254687
 H        -0.156961         1.230010        -0.485684
 H        -0.143189        -0.400355        -1.392982
 H         1.614596         1.934289         1.028737
 H         1.700209         0.602012         2.226286
 H         4.208643         1.006454         0.695696
 H         3.761539        -1.931227         1.014703
 H         4.322945        -0.829204        -1.566690
 H         2.711671        -1.895142        -1.643613
 H         3.212120         1.517254        -2.092172
