19
Iteration:  4622
 C        -0.079751         0.068860        -0.395545
 C         1.282655        -0.055868         0.194939
 C         2.134617         1.021473         1.196044
 C         3.243891         0.460542         0.348914
 C         3.197066        -1.092749         0.403238
 C         3.189726        -1.115295        -1.073720
 C         2.462420         0.203844        -0.876862
 O         2.286631         1.303235        -1.700345
 O         1.704779        -1.322019         0.768697
 H        -0.811000        -0.278440         0.317885
 H        -0.422501         1.031293        -0.744157
 H        -0.254839        -0.756080        -1.188911
 H         2.018091         2.117503         0.908427
 H         2.429099         0.890407         2.249818
 H         4.298708         0.743482         0.294245
 H         3.812224        -1.766470         0.901953
 H         4.144678        -1.116867        -1.519893
 H         2.758483        -2.061022        -1.379203
 H         1.521260         1.145824        -2.293374
