19
Iteration:  2362
 C        -0.160692         0.073523        -0.236512
 C         1.265890        -0.058558         0.144455
 C         1.884165         0.987298         1.078546
 C         3.177462         0.490728         0.479507
 C         3.150271        -1.183952         0.403189
 C         3.268870        -1.098529        -1.153012
 C         2.502000         0.210176        -0.848176
 O         2.482358         1.353593        -1.680899
 O         1.812138        -1.373010         0.685543
 H        -0.835561         0.062808         0.500407
 H        -0.256170         1.092129        -0.777295
 H        -0.454725        -0.752656        -0.967333
 H         1.692761         2.039535         0.658718
 H         1.553229         0.876911         2.130014
 H         4.171902         1.064235         0.537698
 H         3.804930        -1.762872         1.041959
 H         4.278684        -0.908046        -1.381166
 H         2.912554        -1.984329        -1.604023
 H         1.898735         1.067524        -2.426828
