19
Iteration:  1836
 C        -0.030235         0.038602        -0.398817
 C         1.350918        -0.012578         0.137385
 C         2.008569         0.989483         1.141475
 C         3.307800         0.413253         0.599462
 C         3.031459        -1.171790         0.445049
 C         3.295031        -1.034953        -1.085389
 C         2.545021         0.275118        -0.852338
 O         2.183790         1.247397        -1.778905
 O         1.677364        -1.323639         0.658871
 H        -0.719580        -0.144126         0.383053
 H        -0.260597         0.909127        -0.908459
 H        -0.098463        -0.768174        -1.154591
 H         1.903657         1.971686         0.721666
 H         1.690304         0.908184         2.222161
 H         4.348445         0.603188         0.769575
 H         3.553162        -1.845676         1.156739
 H         4.407683        -0.826000        -1.281383
 H         2.880653        -1.889055        -1.713015
 H         2.927802         1.867114        -1.920496
