19
Iteration:    79
 C        -0.078733         0.066942        -0.152852
 C         1.349347         0.055342         0.142271
 C         2.047977         1.013203         1.067902
 C         3.317462         0.366555         0.534587
 C         2.946836        -1.168279         0.437386
 C         3.273502        -1.180084        -1.080733
 C         2.572125         0.254238        -0.912329
 O         2.419247         1.251404        -1.866866
 O         1.573271        -1.253895         0.622536
 H        -0.685799        -0.267577         0.721820
 H        -0.255646         1.066331        -0.535563
 H        -0.259030        -0.594187        -0.950448
 H         2.088217         2.000328         0.726070
 H         1.783932         0.853509         2.136634
 H         4.244588         0.770472         0.725807
 H         3.455456        -1.950984         1.128841
 H         4.342485        -1.063977        -1.252970
 H         2.873262        -2.074428        -1.583851
 H         1.914258         1.939260        -1.456823
