19
Iteration:  2998
 C        -0.008945         0.108602        -0.265362
 C         1.337832         0.024164         0.119803
 C         1.929674         1.001002         1.113813
 C         3.249627         0.437065         0.509378
 C         3.183162        -1.153939         0.469864
 C         3.138508        -1.104740        -1.173045
 C         2.521658         0.236418        -0.872883
 O         2.327641         1.276082        -1.789198
 O         1.770637        -1.418866         0.731138
 H        -0.678408         0.139471         0.713718
 H        -0.234914         1.136612        -0.788663
 H        -0.192770        -0.544242        -1.077372
 H         1.827837         2.058374         0.882641
 H         1.696983         0.719267         2.126041
 H         4.238811         0.937662         0.456030
 H         3.919464        -1.780477         1.029909
 H         4.134914        -1.230858        -1.737533
 H         2.545701        -1.927266        -1.632466
 H         1.482881         1.721065        -1.664848
