19
Iteration:  3636charge 0 multiplicity 1
 C        -0.034695         0.121398        -0.343950
 C         1.319997        -0.034013         0.191848
 C         2.071008         0.921484         1.212909
 C         3.276160         0.441465         0.419436
 C         3.178937        -1.094663         0.422870
 C         3.186668        -1.136602        -1.114001
 C         2.504010         0.213043        -0.851251
 O         2.215333         1.225888        -1.850729
 O         1.774809        -1.288433         0.757552
 H        -0.892731         0.007864         0.250321
 H        -0.080829         1.188554        -0.727855
 H        -0.337563        -0.454889        -1.363615
 H         1.753792         2.036866         1.066682
 H         2.132370         0.803870         2.358815
 H         4.214282         0.913727         0.431807
 H         3.747039        -1.674535         1.173275
 H         4.259195        -0.928339        -1.438974
 H         2.610042        -1.919173        -1.660733
 H         1.257201         1.369740        -1.657319
