19
Iteration:  2273
 C        -0.224102         0.026573        -0.225728
 C         1.312007        -0.064340         0.140830
 C         1.866919         0.952184         1.118384
 C         3.250514         0.463928         0.533893
 C         3.204123        -1.180300         0.456216
 C         3.267894        -1.113440        -1.130973
 C         2.553278         0.297012        -0.866018
 O         2.505723         1.351353        -1.803829
 O         1.738205        -1.337916         0.667337
 H        -0.820516        -0.332916         0.514472
 H        -0.475397         1.103369        -0.330449
 H        -0.475084        -0.501275        -1.251684
 H         1.672953         2.003463         0.741372
 H         1.389046         0.905031         2.120890
 H         4.246366         0.940223         0.554455
 H         3.752286        -1.910788         1.079520
 H         4.202327        -0.996698        -1.585932
 H         2.723280        -1.941019        -1.515503
 H         1.653741         1.469908        -2.264662
