19
Iteration:  4090charge 0 multiplicity 1
 C        -0.118197         0.133527        -0.212710
 C         1.353293         0.004048         0.186542
 C         1.994464         0.939227         1.158085
 C         3.215316         0.517788         0.423156
 C         3.186176        -1.123869         0.452061
 C         3.170235        -1.127018        -1.105788
 C         2.478632         0.210052        -0.904814
 O         2.234398         1.162884        -1.818017
 O         1.823886        -1.324499         0.630756
 H        -0.616557        -0.149209         0.771486
 H        -0.398881         1.168271        -0.457966
 H        -0.406001        -0.431986        -1.021457
 H         2.025244         2.048664         0.871634
 H         1.949832         0.682432         2.219443
 H         4.220620         1.006133         0.496568
 H         3.715890        -1.802310         1.209097
 H         4.103221        -0.728768        -1.536982
 H         2.634251        -2.047477        -1.416845
 H         3.000874         1.720987        -1.908279
