19
Iteration:  4399charge 0 multiplicity 1
 C        -0.237205        -0.011848        -0.044040
 C         1.234613         0.045305         0.202748
 C         2.004441         0.980779         1.096467
 C         3.315699         0.404313         0.442850
 C         3.149467        -1.131484         0.429753
 C         3.284487        -1.104799        -1.133463
 C         2.529385         0.238089        -0.887686
 O         2.468439         1.295139        -1.901923
 O         1.684953        -1.252774         0.647812
 H        -0.642549        -0.207938         1.000421
 H        -0.670454         0.999031        -0.450980
 H        -0.662961        -0.854106        -0.741647
 H         1.875991         2.053470         0.924236
 H         1.821782         0.639561         2.171689
 H         4.323546         0.799219         0.472885
 H         3.744104        -1.914600         0.895019
 H         4.313192        -0.741634        -1.282550
 H         2.928306        -2.015018        -1.619213
 H         1.676308         1.060515        -2.393932
