19
Iteration:   862
 C        -0.153153         0.140757        -0.319542
 C         1.266598        -0.078053         0.078269
 C         1.911641         0.988861         1.071802
 C         3.261928         0.462291         0.596083
 C         3.151395        -1.163973         0.491243
 C         3.210192        -1.096121        -1.156911
 C         2.625850         0.221835        -0.785486
 O         2.353754         1.330576        -1.747272
 O         1.773987        -1.387229         0.692124
 H        -0.812694         0.242234         0.535297
 H        -0.027813         1.034167        -0.864789
 H        -0.634262        -0.475844        -1.038769
 H         1.918633         1.990890         0.735424
 H         1.628422         1.000194         2.127448
 H         4.254232         0.879016         0.824751
 H         3.765231        -1.962939         0.972385
 H         4.201040        -1.014307        -1.665392
 H         2.444049        -1.912956        -1.611587
 H         2.454274         0.951530        -2.634031
