19
Iteration:   227
 C        -0.135916         0.195064        -0.259153
 C         1.256119         0.072361         0.187033
 C         1.987271         0.947884         1.190128
 C         3.260606         0.353810         0.489063
 C         3.127127        -1.134548         0.412451
 C         3.075342        -1.160926        -1.157444
 C         2.528874         0.208943        -0.922410
 O         2.539215         1.196528        -1.887469
 O         1.730766        -1.262806         0.744055
 H        -0.725175        -0.051160         0.589992
 H        -0.343606         1.193637        -0.645897
 H        -0.282861        -0.598212        -0.980883
 H         1.849329         2.077595         1.238673
 H         1.791359         0.534678         2.203222
 H         4.330514         0.693763         0.664520
 H         3.709704        -1.843466         0.965834
 H         4.233509        -1.023480        -1.473961
 H         2.571896        -2.100433        -1.639203
 H         1.884274         1.918516        -1.714008
