19
Iteration:  3681charge 0 multiplicity 1
 C        -0.191954         0.000751        -0.067101
 C         1.283713         0.039727         0.218250
 C         2.054811         1.000234         1.152310
 C         3.251614         0.392675         0.520494
 C         3.178070        -1.110879         0.479625
 C         3.221554        -1.055011        -1.184785
 C         2.441999         0.229917        -0.917776
 O         2.421597         1.198624        -1.901122
 O         1.778089        -1.247999         0.588181
 H        -0.722110        -0.284358         0.826571
 H        -0.400218         1.081067        -0.423231
 H        -0.481055        -0.832584        -0.880398
 H         2.012119         2.095009         0.758778
 H         1.562053         1.137243         2.228351
 H         4.319954         0.604780         0.609159
 H         3.532435        -1.873318         1.166995
 H         4.294002        -0.936118        -1.467668
 H         2.799311        -1.980511        -1.679936
 H         1.545457         1.345275        -2.353620
