19
Iteration:  4403charge 0 multiplicity 1
 C        -0.220736        -0.004798        -0.057046
 C         1.249521         0.039227         0.188156
 C         2.000316         1.014735         1.111534
 C         3.316874         0.382931         0.454127
 C         3.154840        -1.128583         0.393668
 C         3.299446        -1.062962        -1.136847
 C         2.535425         0.203913        -0.877646
 O         2.455664         1.286942        -1.880988
 O         1.665948        -1.269641         0.651607
 H        -0.735536        -0.172030         0.866488
 H        -0.629508         0.915779        -0.321747
 H        -0.577521        -0.819820        -0.697005
 H         1.851110         2.097901         0.834187
 H         1.812346         0.810127         2.182232
 H         4.316258         0.865262         0.379130
 H         3.717612        -1.967858         0.942600
 H         4.343758        -0.828792        -1.387680
 H         2.841802        -2.010011        -1.501965
 H         1.618413         1.038521        -2.347269
