19
Iteration:  4516
 C        -0.224310         0.043340        -0.040675
 C         1.317012         0.004243         0.129839
 C         1.934118         0.945917         1.075742
 C         3.275952         0.447167         0.451725
 C         3.202097        -1.179457         0.372787
 C         3.280723        -1.107658        -1.141247
 C         2.516063         0.240661        -0.907863
 O         2.445522         1.317680        -1.818563
 O         1.708127        -1.285034         0.681138
 H        -0.532636        -0.015854         1.047912
 H        -0.628730         1.070669        -0.344892
 H        -0.667337        -0.719885        -0.637097
 H         1.792580         1.967870         0.808741
 H         1.634619         0.813068         2.119418
 H         4.287292         0.900653         0.631775
 H         3.755324        -1.832827         0.985132
 H         4.394778        -1.025501        -1.374127
 H         2.540711        -1.739811        -1.656019
 H         1.879121         0.865871        -2.475240
