19
Iteration:  1257
 C        -0.185922         0.020115        -0.267248
 C         1.263994        -0.082807         0.099379
 C         1.928348         0.926615         1.054559
 C         3.242176         0.380480         0.602644
 C         3.158603        -1.166288         0.466102
 C         3.307845        -1.005564        -1.093818
 C         2.568104         0.301344        -0.862631
 O         2.388332         1.321243        -1.807712
 O         1.684307        -1.307601         0.686466
 H        -0.918858         0.127063         0.712729
 H        -0.434736         0.882014        -0.883343
 H        -0.758502        -0.862750        -0.780868
 H         1.939528         1.952724         0.565622
 H         1.573964         0.931739         2.092637
 H         4.187253         1.014360         0.599418
 H         3.777177        -1.941392         0.895482
 H         4.312829        -0.873062        -1.247009
 H         3.005904        -1.860010        -1.692754
 H         3.277612         1.457399        -2.112349
