19
Iteration:  1595charge 0 multiplicity 1
 C        -0.146013         0.048376        -0.187487
 C         1.268207        -0.089345         0.077864
 C         1.892661         0.893100         1.018778
 C         3.243363         0.471218         0.511241
 C         3.155043        -1.143207         0.520030
 C         3.354497        -1.111014        -1.018539
 C         2.579974         0.240776        -0.862065
 O         2.363825         1.450265        -1.781202
 O         1.663304        -1.396304         0.583161
 H        -0.724989         0.075414         0.782871
 H        -0.426173         0.934613        -0.649277
 H        -0.762006        -0.711179        -0.889701
 H         1.796156         1.929912         0.638254
 H         1.586952         0.851118         2.087952
 H         4.256483         0.997114         0.461288
 H         3.687253        -1.654065         1.319849
 H         4.379516        -0.980362        -1.264309
 H         2.908151        -1.952966        -1.535096
 H         3.213601         1.460996        -2.308208
