19
Iteration:  4679charge 0 multiplicity 1
 C        -0.175365         0.006188        -0.071863
 C         1.312099         0.008037         0.191311
 C         1.981233         0.987233         1.134058
 C         3.360132         0.473266         0.458676
 C         3.123927        -1.142925         0.527234
 C         3.191849        -1.028965        -1.143061
 C         2.478824         0.250093        -0.892820
 O         2.442942         1.243721        -1.926746
 O         1.714837        -1.316943         0.598240
 H        -0.700990        -0.090296         0.945828
 H        -0.617433         0.876237        -0.703472
 H        -0.387621        -0.832937        -0.730703
 H         1.813674         2.046575         0.955398
 H         2.088733         0.758944         2.217731
 H         4.429200         0.806857         0.637904
 H         3.526800        -1.909503         1.218772
 H         4.277165        -0.791271        -1.381973
 H         2.663152        -1.767024        -1.723678
 H         1.642531         0.975935        -2.433735
