19
Iteration:  2541
 C        -0.231324        -0.016953        -0.179667
 C         1.251019        -0.063681         0.084687
 C         1.918792         0.900150         1.206043
 C         3.213999         0.472269         0.458341
 C         3.218767        -1.074163         0.481762
 C         3.210033        -1.091750        -1.086622
 C         2.527732         0.284304        -0.946446
 O         2.579549         1.327067        -1.817003
 O         1.763669        -1.311949         0.645156
 H        -0.773827        -0.089889         0.748229
 H        -0.647242         0.949672        -0.680854
 H        -0.621915        -0.833735        -0.740776
 H         1.686617         1.959330         1.145058
 H         1.769745         0.507708         2.232510
 H         4.108738         1.055424         0.507470
 H         3.756358        -1.761187         1.134462
 H         4.137914        -0.981483        -1.704773
 H         2.545079        -1.884376        -1.518434
 H         1.780634         1.450815        -2.397840
