19
Iteration:  4484
 C        -0.082195        -0.012320        -0.292546
 C         1.329210         0.024533         0.268116
 C         2.095559         0.950204         1.205518
 C         3.295467         0.465978         0.421382
 C         3.182637        -1.171432         0.415517
 C         3.135209        -1.037356        -1.100804
 C         2.453281         0.258257        -0.791702
 O         2.342084         1.277023        -1.866401
 O         1.685847        -1.277563         0.684598
 H        -0.742286        -0.330963         0.551643
 H        -0.332646         0.948965        -0.803523
 H        -0.080165        -0.710895        -1.023182
 H         2.008550         1.919890         0.785729
 H         2.009168         0.889656         2.286274
 H         4.302554         0.861147         0.556265
 H         3.788326        -1.837236         0.977869
 H         4.096261        -1.152656        -1.605133
 H         2.539927        -1.679473        -1.742051
 H         1.580460         0.905827        -2.380392
