19
Iteration:  4925charge 0 multiplicity 1
 C        -0.125495         0.011713        -0.252332
 C         1.280977         0.008290         0.224529
 C         2.080987         0.876573         1.143921
 C         3.302709         0.537444         0.409763
 C         3.137307        -1.126262         0.462670
 C         3.168783        -1.084845        -1.100868
 C         2.452159         0.200090        -0.931633
 O         2.315866         1.228132        -1.937845
 O         1.782176        -1.230969         0.776799
 H        -0.814736        -0.248601         0.533565
 H        -0.368678         1.021772        -0.531875
 H        -0.205888        -0.925369        -0.943774
 H         1.938915         1.906782         0.874304
 H         1.845230         0.818613         2.149280
 H         4.349627         0.857937         0.629013
 H         3.600504        -1.931888         1.005223
 H         4.158401        -1.035755        -1.525954
 H         2.612938        -1.985382        -1.545974
 H         2.272451         2.026341        -1.350835
