19
Iteration:  1235
 C        -0.073304         0.030496        -0.304153
 C         1.285579        -0.065026         0.170918
 C         1.910753         1.017721         1.156073
 C         3.202216         0.533005         0.554007
 C         3.116357        -1.125063         0.456262
 C         3.205522        -1.100427        -1.113945
 C         2.529168         0.285931        -0.806587
 O         2.427608         1.270999        -1.827735
 O         1.730659        -1.415810         0.628106
 H        -0.955585        -0.053988         0.521680
 H        -0.200535         0.938901        -0.912075
 H        -0.361051        -0.823540        -1.053055
 H         1.572174         2.052409         0.807783
 H         1.677764         0.780307         2.197801
 H         4.290587         0.847173         0.695588
 H         3.793973        -1.685919         1.082453
 H         4.074731        -0.937937        -1.624970
 H         2.619882        -1.793796        -1.710722
 H         3.364315         1.603714        -1.964228
