19
Iteration:  2169charge 0 multiplicity 1
 C        -0.116364         0.145769        -0.426176
 C         1.280890        -0.014530         0.161269
 C         1.916395         0.912754         1.211755
 C         3.261898         0.425956         0.530598
 C         3.161068        -1.080403         0.476668
 C         3.237253        -1.146216        -1.161393
 C         2.497428         0.205800        -0.829568
 O         2.242453         1.275224        -1.747597
 O         1.817084        -1.316294         0.697729
 H        -1.090577         0.213069         0.252598
 H        -0.009405         1.057925        -1.086466
 H        -0.200652        -0.617909        -1.089846
 H         1.871771         2.013373         1.078321
 H         1.883697         0.509878         2.234389
 H         4.319901         0.782397         0.428541
 H         3.863072        -1.635935         1.045716
 H         4.329094        -1.096331        -1.603627
 H         2.641608        -2.017740        -1.626261
 H         3.092843         1.591294        -2.189797
