19
Iteration:  3431charge 0 multiplicity 1
 C        -0.144722         0.069905        -0.219910
 C         1.312811        -0.015042         0.159337
 C         2.009627         0.962523         1.167314
 C         3.270663         0.535742         0.432212
 C         3.188225        -1.116390         0.424497
 C         3.209654        -1.189123        -1.148967
 C         2.446523         0.233188        -0.847550
 O         2.446399         1.242032        -1.783167
 O         1.709712        -1.293227         0.653360
 H        -0.571946        -0.361941         0.625870
 H        -0.600329         1.085218        -0.352293
 H        -0.432018        -0.537279        -1.029405
 H         1.797002         2.021572         1.002050
 H         1.865997         0.697919         2.223450
 H         4.272767         1.010706         0.413037
 H         3.738413        -1.792141         1.164961
 H         4.155357        -0.852097        -1.618667
 H         2.774929        -2.028302        -1.682863
 H         1.522193         1.339648        -2.078721
