19
Iteration:  1454charge 0 multiplicity 1
 C        -0.155358         0.021044        -0.247662
 C         1.300191        -0.042011         0.071436
 C         1.932522         0.887586         1.179948
 C         3.271433         0.451095         0.619767
 C         3.105953        -1.136893         0.523040
 C         3.260191        -0.975784        -1.120399
 C         2.584317         0.243825        -0.911522
 O         2.376310         1.222532        -1.847337
 O         1.654905        -1.246219         0.593895
 H        -0.749535         0.098050         0.749615
 H        -0.467291         0.801782        -0.848013
 H        -0.443071        -0.927379        -0.802229
 H         1.843098         1.996654         1.017472
 H         1.564687         0.618734         2.168390
 H         4.325613         0.897571         0.778811
 H         3.643135        -1.874125         1.152717
 H         4.464343        -0.716736        -1.316115
 H         3.009912        -1.893181        -1.785134
 H         3.236932         1.525917        -2.245290
