19
Iteration:  4774charge 0 multiplicity 1
 C        -0.121063         0.022461        -0.288073
 C         1.303293        -0.019273         0.190178
 C         2.145161         0.988224         1.151029
 C         3.346498         0.406161         0.413081
 C         3.146290        -1.097132         0.475264
 C         3.192806        -1.156584        -1.134239
 C         2.499353         0.246509        -0.886206
 O         2.249778         1.272323        -1.796592
 O         1.706428        -1.199023         0.759961
 H        -0.673714        -0.254700         0.554779
 H        -0.588420         0.867447        -0.744730
 H        -0.215129        -0.748122        -1.106479
 H         2.027760         2.095011         0.972447
 H         2.019528         0.622526         2.217433
 H         4.284983         1.051733         0.442194
 H         3.645122        -1.981517         0.802719
 H         4.237463        -0.855888        -1.215080
 H         2.680595        -1.899845        -1.761724
 H         1.661088         0.788161        -2.426237
