19
Iteration:    43charge 0 multiplicity 1
 C        -0.210996         0.128323        -0.300717
 C         1.234205         0.006360         0.188069
 C         2.078146         0.907755         1.183563
 C         3.320142         0.407598         0.568668
 C         3.074597        -1.095257         0.397241
 C         3.152519        -1.104065        -1.157000
 C         2.567325         0.255000        -0.830992
 O         2.484794         1.112618        -1.916646
 O         1.692179        -1.264530         0.718140
 H        -1.107789         0.016728         0.393331
 H        -0.279684         1.278479        -0.573940
 H        -0.317865        -0.459643        -1.312160
 H         2.062211         2.046622         1.093427
 H         1.899836         0.793110         2.254045
 H         4.359708         0.855015         0.785864
 H         3.591237        -1.830112         0.944980
 H         4.065964        -1.031905        -1.581885
 H         2.519334        -1.799473        -1.548679
 H         2.313957         2.016369        -1.673007
