19
Iteration:   893
 C        -0.076797         0.044553        -0.313684
 C         1.274083        -0.034013         0.151728
 C         1.998036         0.890996         1.196429
 C         3.235039         0.491366         0.481812
 C         3.098744        -1.144003         0.493769
 C         3.246069        -1.085278        -1.110389
 C         2.479891         0.252217        -0.866785
 O         2.499391         1.347566        -1.813999
 O         1.636981        -1.337051         0.697186
 H        -0.776891         0.295761         0.431554
 H        -0.193142         0.845470        -1.119894
 H        -0.265131        -0.840801        -0.873383
 H         1.861336         2.000677         1.114978
 H         1.906383         0.601658         2.369466
 H         4.154794         0.930347         0.494858
 H         3.628057        -1.940353         1.043650
 H         4.253567        -0.706287        -1.437886
 H         2.854810        -1.975863        -1.808876
 H         1.861319         1.167289        -2.539127
