19
Iteration:   409charge 0 multiplicity 1
 C        -0.141221         0.242520        -0.215394
 C         1.292192        -0.007740         0.079168
 C         1.939653         0.963675         1.046715
 C         3.269620         0.368054         0.476375
 C         3.183040        -1.165257         0.469387
 C         3.147587        -1.118682        -1.183262
 C         2.554305         0.222698        -0.853299
 O         2.508815         1.231134        -1.699629
 O         1.710446        -1.328988         0.739118
 H        -0.757889         0.076297         0.752053
 H        -0.136723         1.352205        -0.297004
 H        -0.715125        -0.178263        -1.154351
 H         1.798531         1.933947         0.511373
 H         1.590413         0.760091         2.048492
 H         4.345651         0.704044         0.334019
 H         3.678019        -1.862365         1.104701
 H         4.006530        -1.044359        -1.762935
 H         2.558933        -1.912063        -1.546922
 H         1.718886         1.202892        -2.254735
