19
Iteration:  1062charge 0 multiplicity 1
 C        -0.062996         0.033510        -0.319541
 C         1.269676        -0.061452         0.134814
 C         1.927684         0.948080         1.170265
 C         3.177410         0.519988         0.442116
 C         3.058232        -1.121073         0.433777
 C         3.287560        -1.159713        -1.093552
 C         2.554357         0.218646        -0.878191
 O         2.453957         1.306171        -1.775975
 O         1.700244        -1.324938         0.669502
 H        -0.676669         0.260860         0.591628
 H        -0.156831         0.915054        -0.841747
 H        -0.487658        -0.840382        -0.859389
 H         1.688885         2.077927         1.041115
 H         1.753769         0.602042         2.188006
 H         4.333559         0.906316         0.411730
 H         3.629872        -1.692669         1.128594
 H         4.439808        -1.092021        -1.348731
 H         2.691368        -2.003348        -1.717266
 H         2.300096         2.159956        -1.376489
