19
Iteration:  3518
 C        -0.156861        -0.014252        -0.106772
 C         1.300840        -0.014790         0.163930
 C         1.991547         0.917211         1.152782
 C         3.253720         0.417666         0.502815
 C         3.176674        -1.163715         0.385736
 C         3.177300        -1.056754        -1.071638
 C         2.539824         0.312135        -0.928966
 O         2.430863         1.347609        -1.956639
 O         1.729596        -1.305012         0.754515
 H        -0.723879        -0.034127         0.767721
 H        -0.311244         1.016411        -0.609763
 H        -0.594860        -0.781816        -0.799062
 H         1.795171         1.973560         0.875083
 H         1.612664         0.786679         2.198853
 H         4.287893         0.764617         0.625250
 H         3.847164        -1.880437         0.903037
 H         4.215872        -1.117540        -1.406659
 H         2.542991        -1.781897        -1.581332
 H         1.897612         1.141690        -2.718253
