19
Iteration:  1815charge 0 multiplicity 1
 C        -0.099797         0.125418        -0.414212
 C         1.269707        -0.067314         0.086719
 C         1.924179         1.026106         1.073099
 C         3.277071         0.423880         0.518141
 C         3.196148        -1.190121         0.505088
 C         3.347449        -1.151686        -1.087001
 C         2.617975         0.210764        -0.863943
 O         2.163578         1.325805        -1.608162
 O         1.701273        -1.319331         0.637576
 H        -0.838212         0.047929         0.427667
 H        -0.243289         1.071232        -0.916908
 H        -0.398555        -0.660383        -1.140259
 H         1.854182         2.030517         0.713459
 H         1.753412         0.872034         2.190403
 H         4.169390         0.976095         0.645987
 H         3.783994        -1.925970         1.133464
 H         4.425153        -1.086048        -1.363984
 H         2.836306        -2.018114        -1.602929
 H         2.944011         1.596961        -2.170856
