19
Iteration:  1853charge 0 multiplicity 1
 C        -0.151997        -0.026962        -0.407563
 C         1.329281         0.051767         0.174599
 C         1.995443         0.904082         1.229099
 C         3.264251         0.399549         0.580003
 C         3.199433        -1.163836         0.450271
 C         3.189457        -1.014665        -1.058105
 C         2.538709         0.318062        -0.805573
 O         2.327064         1.209391        -1.902227
 O         1.659675        -1.273374         0.661029
 H        -0.885296        -0.231738         0.458689
 H        -0.382409         0.997299        -0.871025
 H        -0.123408        -0.791867        -1.243928
 H         1.900178         2.010127         1.133734
 H         1.866456         0.653787         2.261997
 H         4.203103         1.014676         0.742942
 H         3.785010        -1.977758         0.819081
 H         4.211692        -0.830401        -1.344442
 H         2.671254        -1.671662        -1.723413
 H         3.108778         1.766423        -2.131208
