19
Iteration:   674
 C        -0.116654         0.147342        -0.260213
 C         1.312189         0.032515         0.207341
 C         2.005444         0.913309         1.248273
 C         3.245749         0.433137         0.426874
 C         3.090514        -1.189990         0.399706
 C         3.148685        -1.172066        -1.184144
 C         2.492222         0.241655        -0.898852
 O         2.544597         1.230543        -1.833893
 O         1.709966        -1.236835         0.732224
 H        -0.808661         0.128012         0.518944
 H        -0.139093         1.050507        -0.936723
 H        -0.434659        -0.667947        -0.927285
 H         1.700090         1.901992         1.119534
 H         1.946190         0.674704         2.309339
 H         4.154829         1.015438         0.589626
 H         3.537019        -1.897385         1.125937
 H         4.090407        -0.901685        -1.644123
 H         2.671995        -2.016194        -1.753225
 H         1.607461         1.475641        -1.848226
