19
Iteration:  4268charge 0 multiplicity 1
 C        -0.084335         0.073241        -0.293680
 C         1.333002        -0.055787         0.249761
 C         1.960214         0.988924         1.150406
 C         3.309734         0.426159         0.468084
 C         3.210411        -1.173416         0.334579
 C         3.103118        -1.026972        -1.166194
 C         2.460344         0.248526        -0.817932
 O         2.350628         1.193294        -1.883861
 O         1.791433        -1.281837         0.801267
 H        -0.645095        -0.222399         0.534894
 H        -0.261661         1.150407        -0.504129
 H        -0.147617        -0.676439        -1.101369
 H         1.918357         2.055645         0.895191
 H         1.846157         0.941659         2.302927
 H         4.185223         0.998303         0.665325
 H         3.764615        -1.848869         0.928138
 H         4.139020        -1.122283        -1.593971
 H         2.492733        -1.682242        -1.769814
 H         1.457166         1.583891        -1.939791
