19
Iteration:   239
 C        -0.126533         0.102123        -0.220419
 C         1.375482         0.114020         0.124516
 C         1.993911         0.945055         1.266551
 C         3.350427         0.466405         0.542102
 C         3.065176        -1.255062         0.349897
 C         3.108563        -1.199947        -1.149567
 C         2.524537         0.286412        -0.804731
 O         2.534764         1.152594        -1.910938
 O         1.648647        -1.179755         0.660103
 H        -0.679192        -0.052084         0.706595
 H        -0.547012         1.063381        -0.603955
 H        -0.409596        -0.634004        -0.946093
 H         1.683238         2.018604         1.094224
 H         1.751133         0.606983         2.305356
 H         4.333309         0.900108         0.713751
 H         3.593501        -1.978704         0.992875
 H         4.168916        -1.048533        -1.694402
 H         2.513296        -2.011643        -1.733637
 H         1.695936         1.597434        -1.931297
