19
Iteration:  2489
 C        -0.042093        -0.003315        -0.423563
 C         1.305576        -0.050676         0.118979
 C         2.071852         1.035574         1.129764
 C         3.373121         0.471125         0.572209
 C         3.120800        -1.167977         0.443507
 C         3.239218        -1.095868        -1.077511
 C         2.567045         0.307443        -0.808309
 O         2.203831         1.307404        -1.701373
 O         1.654359        -1.336473         0.644890
 H        -0.851220        -0.226348         0.476588
 H        -0.445090         0.848178        -0.772183
 H        -0.103527        -0.855142        -1.158753
 H         1.973729         2.073860         0.797067
 H         1.945213         1.038375         2.197894
 H         4.392689         0.836838         0.711118
 H         3.635796        -1.937579         0.950173
 H         4.298494        -0.820078        -1.349226
 H         2.732923        -1.873203        -1.810867
 H         1.588277         0.962461        -2.397005
