19
Iteration:  1319charge 0 multiplicity 1
 C        -0.161161         0.113070        -0.386871
 C         1.282841        -0.015124         0.200284
 C         1.886134         0.939882         1.202110
 C         3.178828         0.397688         0.632802
 C         3.151002        -1.122857         0.421785
 C         3.212234        -1.026387        -1.172187
 C         2.574079         0.270044        -0.828748
 O         2.365584         1.202395        -1.884970
 O         1.812967        -1.349430         0.741103
 H        -0.865704        -0.079803         0.313727
 H        -0.239852         1.193081        -0.707676
 H        -0.184677        -0.673278        -1.145716
 H         1.733576         1.942227         0.884138
 H         1.559615         0.808177         2.240315
 H         4.142600         0.800716         0.728581
 H         3.864413        -1.826525         0.819117
 H         4.382827        -0.809140        -1.387619
 H         2.671368        -1.778896        -1.799161
 H         3.113737         1.628238        -2.273442
