19
Iteration:  4003
 C        -0.183666         0.008011        -0.209062
 C         1.283769        -0.081143         0.181515
 C         2.048264         1.001013         1.192709
 C         3.300850         0.475972         0.390381
 C         3.209670        -1.096907         0.369991
 C         3.124671        -1.148043        -1.110765
 C         2.498415         0.267207        -0.848456
 O         2.342303         1.332853        -1.859557
 O         1.739262        -1.296822         0.754222
 H        -0.968369        -0.112236         0.625443
 H        -0.376864         0.986551        -0.606335
 H        -0.387829        -0.774981        -0.803361
 H         1.818849         2.109398         0.948596
 H         1.866809         0.660065         2.224227
 H         4.366577         0.693665         0.457027
 H         3.778549        -1.757727         1.055486
 H         4.176110        -1.062830        -1.609074
 H         2.568218        -2.080797        -1.453987
 H         2.992422         1.189349        -2.551659
