19
Iteration:  4771
 C        -0.133030         0.007436        -0.263300
 C         1.283359        -0.000435         0.177304
 C         2.131666         0.992627         1.139187
 C         3.367728         0.410698         0.383270
 C         3.124219        -1.096134         0.423728
 C         3.212009        -1.141360        -1.106157
 C         2.499393         0.260503        -0.862973
 O         2.259603         1.254794        -1.766445
 O         1.708128        -1.205443         0.752709
 H        -0.739906        -0.294598         0.586928
 H        -0.510948         0.885160        -0.726253
 H        -0.217899        -0.759115        -1.110731
 H         2.096778         2.039245         0.932961
 H         1.980590         0.734970         2.149916
 H         4.253388         0.995371         0.476930
 H         3.664688        -1.935064         0.889596
 H         4.275040        -0.989765        -1.276345
 H         2.674661        -1.907882        -1.758640
 H         1.741603         0.784612        -2.435250
