19
Iteration:  3451charge 0 multiplicity 1
 C        -0.137276         0.102114        -0.276027
 C         1.348692        -0.022139         0.131535
 C         1.940063         0.922024         1.067148
 C         3.308170         0.370238         0.522074
 C         3.153646        -1.202567         0.427225
 C         3.189540        -1.092738        -1.126840
 C         2.581835         0.271504        -0.898013
 O         2.281916         1.287811        -1.824777
 O         1.816416        -1.270689         0.828115
 H        -0.810938        -0.172347         0.442336
 H        -0.188326         1.189599        -0.526983
 H        -0.457502        -0.301250        -1.343383
 H         1.797776         2.056176         0.780629
 H         1.664143         0.809865         2.169389
 H         4.267791         0.836540         0.723691
 H         4.030889        -1.807120         0.835807
 H         4.236370        -1.130291        -1.561534
 H         2.520272        -1.765106        -1.666703
 H         1.284092         1.360116        -1.871374
