19
Iteration:  2239charge 0 multiplicity 1
 C        -0.288615        -0.027195        -0.095780
 C         1.241884         0.000942         0.068663
 C         1.931998         0.962284         1.110072
 C         3.249349         0.431710         0.436041
 C         3.128099        -1.127169         0.495094
 C         3.317407        -1.072020        -1.061218
 C         2.533636         0.256863        -0.900167
 O         2.584759         1.366720        -1.762814
 O         1.727472        -1.344608         0.596884
 H        -0.805230        -0.327403         0.793734
 H        -0.628347         0.942734        -0.283617
 H        -0.733331        -0.682756        -0.960983
 H         1.597066         1.940274         0.760043
 H         1.629143         0.600090         2.139601
 H         4.188894         0.933739         0.312194
 H         3.611333        -1.898652         1.189846
 H         4.292491        -0.797072        -1.430872
 H         2.893724        -1.884408        -1.636503
 H         2.131739         1.253145        -2.664698
