19
Iteration:  3572
 C        -0.244737        -0.048227         0.009966
 C         1.277028         0.064091         0.126377
 C         2.050366         0.931532         1.081243
 C         3.286155         0.464186         0.435102
 C         3.101807        -1.154741         0.523038
 C         3.255772        -1.211773        -1.142885
 C         2.488203         0.232871        -0.948948
 O         2.464280         1.433264        -1.868566
 O         1.725450        -1.267202         0.674330
 H        -0.585928        -0.277677         0.991479
 H        -0.795591         0.903720        -0.420779
 H        -0.506340        -0.932255        -0.812668
 H         1.672307         1.946195         0.750694
 H         1.851195         0.609480         2.163081
 H         4.273559         0.934993         0.380017
 H         3.641821        -1.873317         1.178195
 H         4.263714        -0.870103        -1.423949
 H         2.988531        -2.087794        -1.767533
 H         2.117144         1.198801        -2.742114
