19
Iteration:  2902
 C        -0.262984         0.055821         0.025164
 C         1.262650        -0.102949         0.110847
 C         1.866269         0.949641         1.087697
 C         3.187099         0.421612         0.459661
 C         3.214375        -1.076361         0.372485
 C         3.285414        -1.089251        -1.184342
 C         2.501454         0.212024        -0.905450
 O         2.565545         1.268046        -1.873463
 O         1.736885        -1.324590         0.664085
 H        -0.701252        -0.084396         0.920612
 H        -0.404884         1.152809        -0.196927
 H        -0.877285        -0.403240        -0.843346
 H         1.787785         2.068134         0.886411
 H         1.778086         0.706707         2.160367
 H         4.154736         1.034613         0.720140
 H         3.794251        -1.843607         0.976029
 H         4.337811        -0.814973        -1.479328
 H         2.901332        -1.938728        -1.752843
 H         2.271239         2.104817        -1.450265
