19
Iteration:    63charge 0 multiplicity 1
 C        -0.139690         0.134928        -0.280043
 C         1.345681         0.106996         0.148876
 C         2.075953         1.049083         1.173772
 C         3.267174         0.345699         0.515974
 C         3.108012        -1.322712         0.468471
 C         3.208297        -1.081010        -1.060304
 C         2.504028         0.237449        -0.857008
 O         2.423704         1.169825        -1.891773
 O         1.610038        -1.262225         0.642427
 H        -0.593775        -0.250013         0.653165
 H        -0.709967         1.077878        -0.565024
 H        -0.294640        -0.700086        -1.071361
 H         1.918904         2.125983         0.776762
 H         1.873525         1.081270         2.246033
 H         4.410556         0.583345         0.450699
 H         3.626317        -2.052184         1.018416
 H         4.276651        -0.811108        -1.237384
 H         2.876233        -1.708162        -1.896125
 H         2.167326         2.014010        -1.511955
