19
Iteration:   101
 C        -0.282436         0.185619        -0.242258
 C         1.257987         0.048772         0.046123
 C         2.000659         0.957514         1.122209
 C         3.280165         0.386073         0.488109
 C         3.131156        -1.187594         0.474586
 C         3.184478        -1.146873        -1.073462
 C         2.628959         0.206584        -0.833658
 O         2.531150         1.258955        -1.880864
 O         1.723847        -1.311432         0.700106
 H        -0.686523        -0.072922         0.778256
 H        -0.654430         1.149018        -0.600695
 H        -0.641673        -0.593569        -0.864987
 H         1.990195         1.973550         0.835074
 H         1.900010         0.780788         2.214358
 H         4.160912         0.919173         0.607303
 H         3.722886        -1.967795         1.095445
 H         4.137815        -1.140477        -1.554758
 H         2.455841        -1.781745        -1.551467
 H         1.661748         1.703560        -1.657709
