19
Iteration:  2779charge 0 multiplicity 1
 C        -0.110638         0.033744        -0.207928
 C         1.339722        -0.050826         0.043338
 C         1.946318         0.963131         1.143994
 C         3.292346         0.379112         0.517858
 C         3.117911        -1.182988         0.465249
 C         3.224642        -1.047763        -1.160539
 C         2.553248         0.260874        -0.866107
 O         2.281114         1.216946        -1.805579
 O         1.738115        -1.206190         0.663727
 H        -0.460338        -0.363946         0.631949
 H        -0.530790         1.122855        -0.295169
 H        -0.469882        -0.625709        -0.931218
 H         1.898585         2.011171         0.851290
 H         1.658725         0.729970         2.197814
 H         4.306683         0.709362         0.513863
 H         3.704221        -1.906780         1.011041
 H         4.342374        -0.863079        -1.379308
 H         2.757476        -1.822295        -1.813427
 H         2.644823         2.104085        -1.558034
