19
Iteration:  2111
 C        -0.174235        -0.001620        -0.219464
 C         1.292345         0.050679         0.090370
 C         1.960575         0.958287         1.212910
 C         3.252073         0.447372         0.581500
 C         3.159959        -1.175747         0.421558
 C         3.264937        -1.090459        -1.107635
 C         2.557907         0.263016        -0.842085
 O         2.358638         1.239249        -1.870076
 O         1.676776        -1.259100         0.606174
 H        -0.694109        -0.289735         0.640777
 H        -0.795033         0.927695        -0.586279
 H        -0.373207        -0.851348        -1.006173
 H         1.904201         2.041620         1.032282
 H         1.864086         0.892998         2.268112
 H         4.268695         0.872992         0.654717
 H         3.726903        -2.001550         0.867806
 H         4.299622        -0.886838        -1.509864
 H         2.783787        -1.951338        -1.626636
 H         3.205688         1.680129        -1.967141
