19
Iteration:  3684charge 0 multiplicity 1
 C        -0.204827        -0.017261        -0.050061
 C         1.262532         0.045116         0.229203
 C         2.061699         1.021208         1.144822
 C         3.261342         0.412232         0.508842
 C         3.190604        -1.093485         0.485764
 C         3.235675        -1.038313        -1.222394
 C         2.415761         0.205477        -0.931384
 O         2.468337         1.202360        -1.894308
 O         1.757282        -1.278434         0.599168
 H        -0.867446        -0.298930         0.927402
 H        -0.491145         1.055766        -0.470005
 H        -0.491160        -0.735630        -0.830726
 H         1.946008         2.020592         0.814445
 H         1.624791         1.092197         2.176956
 H         4.388862         0.639938         0.628806
 H         3.504002        -1.889367         1.165863
 H         4.236243        -0.922340        -1.459754
 H         2.757755        -1.927158        -1.633316
 H         1.645208         1.297658        -2.385556
