19
Iteration:  4907charge 0 multiplicity 1
 C        -0.175389        -0.016846        -0.154931
 C         1.294544        -0.044512         0.186578
 C         1.949656         1.020219         1.176750
 C         3.256194         0.483072         0.436460
 C         3.172819        -1.086635         0.388844
 C         3.068792        -1.118845        -1.170358
 C         2.543504         0.317014        -0.857783
 O         2.450715         1.185395        -1.983859
 O         1.785335        -1.338626         0.803099
 H        -0.835180        -0.221154         0.707851
 H        -0.428603         1.009575        -0.568359
 H        -0.466932        -0.697236        -0.912337
 H         1.653192         2.106299         1.128714
 H         2.043071         0.635040         2.241248
 H         4.229494         1.056272         0.339530
 H         3.945679        -1.550676         1.025920
 H         4.094913        -1.138504        -1.688961
 H         2.546771        -1.963666        -1.590538
 H         2.647700         2.101136        -1.667145
