19
Iteration:  2960charge 0 multiplicity 1
 C        -0.145037        -0.008892        -0.372283
 C         1.318290         0.094714         0.188245
 C         2.109343         0.983263         1.251145
 C         3.349050         0.361792         0.492619
 C         3.127921        -1.155144         0.416180
 C         3.177304        -1.020948        -1.150134
 C         2.436485         0.275537        -0.796138
 O         2.285061         1.177000        -1.854661
 O         1.734960        -1.273871         0.696610
 H        -0.886781        -0.496901         0.213277
 H        -0.538689         0.828251        -0.858707
 H         0.000315        -0.835175        -1.192340
 H         2.262033         2.115216         1.213318
 H         1.897604         0.703710         2.355440
 H         4.350162         0.822110         0.473373
 H         3.712160        -1.938715         0.914644
 H         4.123216        -0.764671        -1.500677
 H         2.635519        -1.802001        -1.675166
 H         2.166891         2.086442        -1.574584
