19
Iteration:  1379
 C        -0.101771        -0.043693        -0.346187
 C         1.293758         0.047306         0.111755
 C         2.004355         1.027843         1.123491
 C         3.297627         0.410846         0.640815
 C         3.136820        -1.206884         0.463280
 C         3.340897        -1.174306        -1.084034
 C         2.605712         0.263194        -0.846214
 O         2.224242         1.314802        -1.749591
 O         1.639250        -1.207354         0.588128
 H        -0.760336        -0.503214         0.576355
 H        -0.625914         0.827019        -0.664989
 H        -0.330991        -0.686656        -1.193644
 H         1.716398         2.037448         0.759328
 H         1.738543         0.909971         2.192772
 H         4.368031         0.809453         0.738992
 H         3.406855        -2.118904         1.027511
 H         4.284111        -0.941043        -1.421116
 H         2.976209        -1.967528        -1.741088
 H         3.002795         1.563411        -2.247838
