19
Iteration:  3618
 C        -0.073613         0.137626        -0.326868
 C         1.318030         0.014776         0.261102
 C         2.015668         1.000526         1.184155
 C         3.367838         0.455270         0.531063
 C         3.280575        -1.194644         0.424930
 C         3.161387        -1.099654        -1.128126
 C         2.340491         0.249045        -0.875991
 O         2.291023         1.175922        -1.827339
 O         1.773849        -1.312947         0.705405
 H        -0.922696        -0.238948         0.347529
 H        -0.477955         1.050861        -0.905190
 H        -0.175702        -0.626567        -1.144132
 H         2.114807         2.002177         0.899480
 H         1.627479         0.901493         2.227610
 H         4.391989         1.000146         0.533509
 H         4.022033        -1.855939         0.856441
 H         3.925260        -0.781440        -1.761780
 H         2.634531        -1.985032        -1.542965
 H         1.429637         1.500154        -2.199366
