19
Iteration:  4435charge 0 multiplicity 1
 C        -0.078410         0.057921        -0.274812
 C         1.365711        -0.027540         0.207487
 C         1.980877         1.032973         1.032856
 C         3.378737         0.409155         0.481374
 C         3.176073        -1.126622         0.411378
 C         3.115568        -1.102149        -1.094163
 C         2.527816         0.227062        -0.870818
 O         2.297203         1.333049        -1.765360
 O         1.737123        -1.353702         0.738435
 H        -0.793620        -0.179996         0.501470
 H        -0.262209         1.122912        -0.456694
 H        -0.338071        -0.634131        -1.235011
 H         1.718859         2.096540         0.685419
 H         1.793317         0.942559         2.143068
 H         4.374546         0.917213         0.468488
 H         3.724040        -1.959381         1.021912
 H         4.072897        -1.100206        -1.644649
 H         2.682916        -2.059703        -1.509489
 H         1.414331         1.071897        -2.062786
