19
Iteration:  4099charge 0 multiplicity 1
 C        -0.080988         0.163554        -0.262905
 C         1.343123        -0.011789         0.135022
 C         1.974492         0.940128         1.170837
 C         3.308581         0.469811         0.459230
 C         3.224495        -1.166404         0.455963
 C         3.163021        -1.141378        -1.146604
 C         2.485996         0.237908        -0.861028
 O         2.167283         1.183925        -1.845979
 O         1.800301        -1.285365         0.729915
 H        -0.829768        -0.244830         0.536078
 H        -0.282475         1.199444        -0.446594
 H        -0.196651        -0.584378        -1.050962
 H         1.702876         2.003233         0.980053
 H         1.940629         0.739859         2.220324
 H         4.221151         1.011242         0.665800
 H         3.895993        -1.716768         1.190790
 H         3.991479        -0.962386        -1.783850
 H         2.646888        -1.955822        -1.734310
 H         2.924116         1.759873        -1.932440
