19
Iteration:  4816
 C        -0.129972         0.112692        -0.228139
 C         1.316096        -0.044912         0.200484
 C         2.015983         0.999116         1.176202
 C         3.318981         0.549066         0.543182
 C         3.251577        -1.148343         0.438847
 C         3.095552        -1.053980        -1.159172
 C         2.524658         0.178006        -0.878143
 O         2.317105         1.139537        -1.881262
 O         1.772616        -1.302867         0.679719
 H        -0.774564        -0.009190         0.609102
 H        -0.258204         1.055811        -0.712912
 H        -0.378723        -0.627084        -1.114996
 H         1.641150         1.936080         0.778640
 H         2.026937         0.953926         2.245995
 H         4.317199         1.068405         0.600433
 H         3.856962        -1.811123         1.086969
 H         4.035681        -0.972300        -1.695508
 H         2.526522        -1.960753        -1.591057
 H         1.390517         1.408688        -1.905909
