19
Iteration:  2677
 C        -0.048124         0.013528        -0.355700
 C         1.360504        -0.016285         0.171521
 C         2.081069         1.001012         1.131551
 C         3.305424         0.413596         0.486244
 C         3.082593        -1.146026         0.428594
 C         3.223246        -1.033048        -1.051978
 C         2.534336         0.268374        -0.881672
 O         2.247844         1.273017        -1.776432
 O         1.657478        -1.357395         0.636403
 H        -0.643015        -0.062373         0.646086
 H        -0.329423         0.899671        -0.830012
 H        -0.105587        -0.925426        -0.956301
 H         1.673878         1.948894         0.750351
 H         1.908944         0.976803         2.210887
 H         4.361915         0.732314         0.668385
 H         3.811139        -1.808034         0.980020
 H         4.348315        -0.925372        -1.190425
 H         2.743947        -1.811170        -1.845174
 H         1.798591         1.842272        -1.146876
