19
Iteration:  4835charge 0 multiplicity 1
 C        -0.155600         0.065785        -0.132749
 C         1.300413         0.002412         0.178074
 C         2.010267         1.019023         1.097287
 C         3.247933         0.409344         0.436926
 C         3.144752        -1.087399         0.434447
 C         3.280229        -1.131918        -1.094184
 C         2.510355         0.288250        -0.863680
 O         2.335743         1.190772        -1.912225
 O         1.772660        -1.327415         0.697288
 H        -0.680319        -0.104411         0.865557
 H        -0.458203         1.093245        -0.442415
 H        -0.594436        -0.755909        -0.766779
 H         2.056311         2.073041         0.875333
 H         1.658387         0.817739         2.086420
 H         4.242392         0.776476         0.421518
 H         3.761397        -1.838230         0.968580
 H         4.266353        -0.926989        -1.500569
 H         2.910112        -2.001748        -1.721236
 H         1.574688         1.797209        -1.830458
