19
Iteration:  2709charge 0 multiplicity 1
 C        -0.267940         0.028902        -0.179215
 C         1.262713         0.010647         0.108120
 C         1.894799         0.948586         1.199600
 C         3.254287         0.452382         0.497087
 C         3.198599        -1.168369         0.324607
 C         3.220870        -1.093334        -1.110603
 C         2.579170         0.261866        -0.872461
 O         2.522675         1.296432        -1.817568
 O         1.806701        -1.297188         0.659790
 H        -0.818272        -0.056382         0.905477
 H        -0.631832         0.903372        -0.567624
 H        -0.772772        -0.857872        -0.666259
 H         1.577365         1.960658         0.916294
 H         1.687106         0.627631         2.208708
 H         4.219429         1.003078         0.633925
 H         3.749110        -1.902707         0.955473
 H         4.304989        -0.935647        -1.339441
 H         2.644112        -1.889444        -1.735788
 H         1.603643         1.408097        -2.201763
