19
Iteration:  1606charge 0 multiplicity 1
 C        -0.186372         0.102132        -0.229692
 C         1.318669        -0.129492         0.044190
 C         1.918344         0.998092         1.052642
 C         3.206583         0.494059         0.485728
 C         3.112839        -1.153463         0.553978
 C         3.319674        -1.068888        -1.088786
 C         2.528564         0.267706        -0.841312
 O         2.407541         1.341120        -1.718458
 O         1.732546        -1.429778         0.610982
 H        -0.726279         0.084863         0.775641
 H        -0.249860         1.018581        -0.714042
 H        -0.492276        -0.889768        -0.884338
 H         1.541516         1.983499         0.730621
 H         1.613895         0.699398         2.074532
 H         4.166695         1.091415         0.661262
 H         3.620670        -1.897545         1.166720
 H         4.271629        -0.807357        -1.454670
 H         2.823299        -1.780193        -1.725175
 H         3.094966         1.325417        -2.434560
