19
Iteration:  1832
 C        -0.065318         0.021499        -0.402298
 C         1.402031        -0.003859         0.139561
 C         2.001776         0.996434         1.131405
 C         3.287219         0.428577         0.598383
 C         3.054268        -1.178594         0.464362
 C         3.321643        -1.086370        -1.108144
 C         2.545087         0.251030        -0.831928
 O         2.170677         1.270266        -1.756142
 O         1.664437        -1.328554         0.653326
 H        -0.755234        -0.025632         0.454084
 H        -0.142103         1.028143        -0.919864
 H        -0.115900        -0.739560        -1.248351
 H         1.851981         2.021327         0.715591
 H         1.666609         0.972788         2.146089
 H         4.408313         0.610182         0.723343
 H         3.511150        -1.796981         1.190426
 H         4.410098        -0.826474        -1.315488
 H         2.884368        -1.832929        -1.798573
 H         2.872612         1.905718        -1.999122
