19
Iteration:   760
 C        -0.241980         0.079001        -0.225232
 C         1.212021        -0.026647         0.134328
 C         2.031365         0.940481         1.074998
 C         3.322051         0.407397         0.460551
 C         3.100801        -1.146680         0.460070
 C         3.209362        -1.099861        -1.069147
 C         2.613347         0.279927        -0.899889
 O         2.501388         1.325622        -1.778611
 O         1.698159        -1.344669         0.690370
 H        -0.940106        -0.065843         0.562988
 H        -0.289462         1.164053        -0.465910
 H        -0.428230        -0.541883        -1.117152
 H         1.889047         2.041009         0.783190
 H         1.714685         0.751922         2.163473
 H         4.279817         0.869258         0.658768
 H         3.646192        -1.746090         1.181662
 H         4.319126        -1.176361        -1.418477
 H         2.517661        -1.893588        -1.660497
 H         1.670089         1.232807        -2.307997
