19
Iteration:   115
 C        -0.172038         0.159712        -0.211582
 C         1.279163         0.061287         0.150502
 C         1.960072         0.931525         1.148578
 C         3.259365         0.429384         0.529216
 C         3.147268        -1.180788         0.389063
 C         3.104655        -1.133043        -1.109360
 C         2.423444         0.274656        -0.889022
 O         2.624137         1.183836        -1.853161
 O         1.751524        -1.321697         0.722820
 H        -0.881691         0.221164         0.569249
 H        -0.267063         1.130780        -0.627877
 H        -0.486063        -0.535018        -0.981100
 H         1.830135         2.013954         0.985715
 H         1.583940         0.744389         2.156624
 H         4.266715         0.951450         0.506039
 H         3.756178        -1.875040         0.978659
 H         4.197656        -0.960668        -1.580574
 H         2.636327        -2.100301        -1.601934
 H         1.867055         1.630324        -2.211046
