19
Iteration:  3239charge 0 multiplicity 1
 C        -0.237658        -0.008893         0.046742
 C         1.272256         0.022112         0.163790
 C         2.016712         0.985083         1.033444
 C         3.294145         0.388603         0.593696
 C         3.096378        -1.202495         0.394564
 C         3.217812        -1.066125        -1.157418
 C         2.631310         0.321131        -0.953232
 O         2.514389         1.253815        -1.941710
 O         1.645432        -1.314420         0.647397
 H        -0.598781        -0.400304         1.070950
 H        -0.480970         1.058093        -0.187928
 H        -0.706289        -0.545563        -0.735509
 H         1.937816         2.104769         0.678127
 H         1.677548         1.062937         2.199478
 H         4.340189         0.794930         0.638098
 H         3.737057        -1.828555         0.960841
 H         4.288076        -1.029197        -1.389629
 H         2.625034        -1.774325        -1.821859
 H         1.665576         1.783072        -1.976742
