19
Iteration:  3730charge 0 multiplicity 1
 C        -0.206433        -0.019436         0.009206
 C         1.283838        -0.012127         0.134197
 C         1.961109         0.982290         1.056745
 C         3.261761         0.418403         0.514043
 C         3.185560        -1.083904         0.428333
 C         3.161327        -1.189723        -1.186328
 C         2.574832         0.238620        -0.959516
 O         2.477338         1.366264        -1.882872
 O         1.698094        -1.287853         0.741654
 H        -0.616776        -0.261668         1.127063
 H        -0.558113         0.897565        -0.482725
 H        -0.439119        -0.849725        -0.597186
 H         1.819947         2.023185         0.928522
 H         1.752652         0.795320         2.048216
 H         4.235333         0.914077         0.621167
 H         3.852031        -1.648536         1.121963
 H         3.993531        -0.918640        -1.836472
 H         2.492194        -1.885959        -1.612316
 H         2.527505         1.208267        -2.824158
