19
Iteration:  2959charge 0 multiplicity 1
 C        -0.143721        -0.008158        -0.361852
 C         1.322838         0.091821         0.186325
 C         2.113599         0.982051         1.264593
 C         3.341694         0.366399         0.494882
 C         3.122957        -1.146342         0.411650
 C         3.178658        -1.024016        -1.153242
 C         2.428936         0.267806        -0.793443
 O         2.290790         1.173782        -1.858801
 O         1.737833        -1.273545         0.691508
 H        -0.831907        -0.466892         0.219567
 H        -0.595111         0.796040        -0.881962
 H        -0.003831        -0.842040        -1.228959
 H         2.242470         2.122533         1.201338
 H         1.867880         0.730740         2.345749
 H         4.391533         0.833572         0.484717
 H         3.665574        -1.956048         0.951907
 H         4.114374        -0.744441        -1.535744
 H         2.640130        -1.801415        -1.703961
 H         2.194834         2.101209        -1.567077
