19
Iteration:  4100charge 0 multiplicity 1
 C        -0.076132         0.155349        -0.266728
 C         1.337773        -0.013307         0.132383
 C         1.979829         0.940257         1.170270
 C         3.318702         0.461427         0.465007
 C         3.227725        -1.161828         0.450765
 C         3.164057        -1.141010        -1.149845
 C         2.486752         0.236746        -0.851380
 O         2.159976         1.188525        -1.851472
 O         1.793557        -1.282753         0.741488
 H        -0.844222        -0.238708         0.507949
 H        -0.274285         1.205188        -0.472232
 H        -0.193292        -0.539620        -1.046910
 H         1.651972         2.019431         0.994523
 H         1.912038         0.746106         2.234386
 H         4.246486         1.012557         0.667299
 H         3.917411        -1.726200         1.168494
 H         4.017683        -1.015881        -1.798833
 H         2.643145        -1.931561        -1.757407
 H         2.922178         1.772845        -1.948356
