19
Iteration:  2991
 C        -0.008583         0.124757        -0.306756
 C         1.394064        -0.061795         0.144291
 C         1.944405         0.968597         1.163116
 C         3.301769         0.472013         0.483997
 C         3.079713        -1.147248         0.488554
 C         3.154929        -1.117454        -1.209194
 C         2.529716         0.247121        -0.884830
 O         2.287466         1.300601        -1.824113
 O         1.755128        -1.383693         0.767715
 H        -0.676285        -0.063892         0.400339
 H        -0.104704         1.101573        -0.711190
 H        -0.117829        -0.790774        -1.067364
 H         1.893434         2.026574         0.888868
 H         1.799208         0.800067         2.223777
 H         4.355892         0.970310         0.620632
 H         3.832566        -1.796415         0.934454
 H         4.142656        -1.191353        -1.613766
 H         2.456788        -1.901634        -1.563746
 H         1.512459         1.873337        -1.564147
