19
Iteration:  4174
 C        -0.211873         0.010686        -0.163332
 C         1.322835        -0.039768         0.190780
 C         1.990727         0.949530         1.071429
 C         3.322282         0.483711         0.494310
 C         3.153956        -1.160350         0.461786
 C         3.184623        -1.105819        -1.168472
 C         2.553084         0.265263        -0.929583
 O         2.304394         1.380532        -1.865779
 O         1.765643        -1.330812         0.766383
 H        -0.781623        -0.056161         0.851468
 H        -0.567620         0.923783        -0.638068
 H        -0.583660        -0.937469        -0.743166
 H         1.762075         1.975575         0.889888
 H         1.729431         0.782106         2.094388
 H         4.326928         0.896841         0.516173
 H         3.838835        -1.820216         1.091893
 H         4.122693        -1.190248        -1.650590
 H         2.612529        -1.877313        -1.765959
 H         3.156745         1.208645        -2.342013
