19
Iteration:   174
 C        -0.086984         0.121890        -0.242909
 C         1.305702         0.117634         0.057921
 C         2.057891         0.981063         1.148977
 C         3.283440         0.276387         0.569801
 C         3.101522        -1.214379         0.477132
 C         3.236573        -1.147855        -1.147736
 C         2.562139         0.231619        -0.851392
 O         2.292395         1.225879        -1.787758
 O         1.635066        -1.180313         0.650375
 H        -0.571511        -0.090827         0.770256
 H        -0.388925         1.138405        -0.692537
 H        -0.411885        -0.709567        -0.906161
 H         2.117948         1.996112         0.698814
 H         1.643614         0.835604         2.168698
 H         4.254986         0.738367         0.629012
 H         3.536364        -1.850337         1.260428
 H         4.279203        -1.082296        -1.610510
 H         2.661359        -1.976877        -1.636804
 H         3.034699         1.412532        -2.428084
