19
Iteration:   888charge 0 multiplicity 1
 C        -0.062667         0.101986        -0.329353
 C         1.264911        -0.054558         0.223923
 C         1.967409         0.871282         1.204625
 C         3.228448         0.477864         0.467259
 C         3.111602        -1.140879         0.466480
 C         3.236068        -1.088224        -1.129075
 C         2.541716         0.222570        -0.892774
 O         2.474907         1.370773        -1.813392
 O         1.635475        -1.354402         0.712629
 H        -0.863544         0.247346         0.477577
 H        -0.137047         0.839970        -1.140277
 H        -0.315057        -0.874990        -0.871976
 H         1.784543         1.933531         0.957365
 H         1.800641         0.762354         2.234859
 H         4.225324         1.099043         0.595672
 H         3.737204        -1.831481         1.029375
 H         4.286972        -0.890787        -1.320938
 H         2.831805        -1.846284        -1.679781
 H         1.960497         1.153636        -2.601603
