19
Iteration:   302
 C        -0.156552         0.279431        -0.197303
 C         1.289792        -0.012540         0.066917
 C         1.968806         0.928409         1.032922
 C         3.274436         0.433911         0.396314
 C         3.115146        -1.141241         0.413921
 C         3.141116        -1.206040        -1.116135
 C         2.530229         0.161462        -0.880014
 O         2.507587         1.257599        -1.629816
 O         1.707334        -1.313731         0.726384
 H        -0.640891         0.084760         0.714366
 H        -0.229672         1.335194        -0.430012
 H        -0.612117        -0.358770        -0.974252
 H         1.707637         2.009382         0.984371
 H         1.820720         0.743791         2.084715
 H         4.446828         0.625069         0.297290
 H         3.709834        -1.595525         1.156733
 H         4.120989        -0.939544        -1.550475
 H         2.594920        -1.972952        -1.695013
 H         2.217417         1.176068        -2.530901
