19
Iteration:  1962charge 0 multiplicity 1
 C        -0.096612         0.020042        -0.364782
 C         1.289018        -0.013613         0.134644
 C         1.951059         0.877885         1.262474
 C         3.263250         0.456778         0.504872
 C         3.178151        -1.059281         0.462230
 C         3.214810        -1.090251        -1.132835
 C         2.562361         0.302172        -0.846481
 O         2.318516         1.280635        -1.835011
 O         1.701925        -1.338908         0.693869
 H        -1.069203        -0.112154         0.312310
 H        -0.217592         0.992520        -0.893798
 H        -0.377982        -0.747926        -1.093184
 H         1.962734         1.981967         1.040722
 H         1.760340         0.610493         2.317828
 H         4.173151         1.052256         0.806571
 H         3.738469        -1.731981         1.049569
 H         4.117748        -1.028800        -1.648153
 H         2.575305        -1.870600        -1.457110
 H         3.187684         1.395832        -2.221213
