19
Iteration:  1995
 C        -0.036280         0.011720        -0.437883
 C         1.303545         0.020781         0.144726
 C         1.947696         0.904729         1.233677
 C         3.240755         0.472369         0.503770
 C         3.148279        -1.110621         0.447633
 C         3.160965        -1.021896        -1.108950
 C         2.501294         0.301128        -0.804867
 O         2.308085         1.192676        -1.864193
 O         1.760140        -1.389771         0.736738
 H        -0.847397         0.194402         0.420842
 H        -0.059859         1.007689        -0.914065
 H        -0.185668        -0.645300        -1.239348
 H         1.957478         2.027399         1.067665
 H         1.733103         0.799391         2.313785
 H         4.271192         0.905970         0.665087
 H         3.738434        -1.855662         0.878449
 H         4.132672        -0.838465        -1.504612
 H         2.693572        -1.801875        -1.665419
 H         2.800014         1.944966        -1.525410
