19
Iteration:   150
 C        -0.201392         0.107079        -0.237142
 C         1.267156         0.074220         0.154063
 C         2.117534         0.965673         1.205717
 C         3.354208         0.454602         0.507017
 C         3.013461        -1.212886         0.415485
 C         3.144125        -1.093692        -1.045697
 C         2.577837         0.280907        -0.877725
 O         2.462361         1.277005        -1.888885
 O         1.649543        -1.339553         0.688199
 H        -0.925442        -0.009915         0.533661
 H        -0.268276         1.013458        -0.841443
 H        -0.324302        -0.717065        -0.989550
 H         1.880124         2.062410         1.020048
 H         1.850972         0.557315         2.172046
 H         4.423450         0.814717         0.779933
 H         3.631917        -1.866471         0.939938
 H         4.322652        -1.203980        -1.270628
 H         2.543702        -1.915664        -1.645455
 H         2.325890         0.895492        -2.750484
