19
Iteration:  4628
 C        -0.079246         0.065729        -0.367169
 C         1.323126        -0.038599         0.138762
 C         2.155484         1.010417         1.180044
 C         3.239026         0.443834         0.348192
 C         3.196244        -1.082104         0.425530
 C         3.189127        -1.125990        -1.071885
 C         2.447936         0.179620        -0.870096
 O         2.282245         1.323314        -1.695389
 O         1.709121        -1.338620         0.791913
 H        -0.881483        -0.195494         0.364038
 H        -0.318583         1.047165        -0.843228
 H        -0.281207        -0.542604        -1.248214
 H         1.986457         2.009438         0.796012
 H         2.112160         0.849649         2.280795
 H         4.201317         0.968160         0.199155
 H         3.805728        -1.811892         1.092238
 H         4.162170        -0.958874        -1.658632
 H         2.719017        -2.037368        -1.552462
 H         1.499893         1.017859        -2.167670
