19
Iteration:  2863charge 0 multiplicity 1
 C        -0.178379        -0.069925        -0.112150
 C         1.271699        -0.049116         0.130615
 C         2.083025         0.988831         1.190936
 C         3.292454         0.424571         0.596936
 C         3.101578        -1.143117         0.397865
 C         3.245556        -1.018833        -1.104429
 C         2.571219         0.352380        -0.914770
 O         2.422834         1.243649        -1.965789
 O         1.641261        -1.304868         0.591193
 H        -0.767831        -0.180648         1.036730
 H        -0.458864         0.876377        -0.622267
 H        -0.562817        -0.903363        -0.762639
 H         2.101248         2.072199         1.152510
 H         1.732087         0.773360         2.239386
 H         4.290572         0.711806         0.807771
 H         3.723081        -1.805294         1.002636
 H         4.278607        -0.921125        -1.484317
 H         2.752523        -1.833808        -1.693663
 H         1.769840         1.905401        -1.721650
