19
Iteration:  3633
 C        -0.039854         0.127321        -0.369801
 C         1.315021        -0.001486         0.201724
 C         2.067277         0.940981         1.214245
 C         3.269236         0.407916         0.447796
 C         3.237017        -1.081997         0.395168
 C         3.169560        -1.130958        -1.099915
 C         2.462525         0.200834        -0.842775
 O         2.221169         1.229236        -1.857045
 O         1.771505        -1.300993         0.756884
 H        -0.905624         0.003930         0.287254
 H        -0.053883         1.127435        -0.675929
 H        -0.209872        -0.455811        -1.248082
 H         1.775372         1.995574         1.047228
 H         2.073461         0.814250         2.269599
 H         4.225283         0.922748         0.419845
 H         3.761026        -1.767247         1.090470
 H         4.221772        -0.904292        -1.456827
 H         2.697703        -2.002179        -1.579650
 H         1.291202         1.392068        -1.712916
