19
Iteration:  3836charge 0 multiplicity 1
 C        -0.140046         0.072471        -0.161108
 C         1.256814        -0.009158         0.216267
 C         2.058016         1.022387         1.126455
 C         3.328099         0.395819         0.434995
 C         3.156579        -1.207682         0.439549
 C         3.219155        -1.116374        -1.133756
 C         2.465670         0.234409        -0.924224
 O         2.229597         1.270739        -1.894892
 O         1.759898        -1.293087         0.744789
 H        -0.930459        -0.013742         0.624247
 H        -0.306410         1.103263        -0.503642
 H        -0.436773        -0.603624        -0.922094
 H         1.886275         2.051483         0.790223
 H         1.975797         0.853727         2.283094
 H         4.321039         0.850972         0.627182
 H         3.808870        -1.847111         1.050005
 H         4.292308        -0.808718        -1.330149
 H         2.851765        -1.981679        -1.804543
 H         3.090988         1.580558        -2.197055
