19
Iteration:  2263charge 0 multiplicity 1
 C        -0.143006         0.011165        -0.133409
 C         1.269857        -0.109087         0.106795
 C         1.855151         0.971033         1.071555
 C         3.183490         0.473824         0.521229
 C         3.200923        -1.034331         0.400835
 C         3.271452        -1.186499        -1.114270
 C         2.554231         0.238309        -0.884252
 O         2.575724         1.385943        -1.765013
 O         1.679556        -1.373237         0.656899
 H        -0.736956        -0.350158         0.566345
 H        -0.249441         1.179237        -0.200449
 H        -0.615729        -0.416412        -1.142048
 H         1.523644         1.947448         0.615201
 H         1.723094         0.745106         2.132318
 H         4.073078         1.139279         0.636987
 H         3.745084        -1.755386         0.988779
 H         4.174540        -0.963863        -1.546279
 H         2.771535        -2.011387        -1.525728
 H         1.739128         1.442017        -2.220532
