19
Iteration:  3405
 C        -0.248209        -0.032145        -0.046918
 C         1.248599        -0.045180         0.253088
 C         2.078856         0.977351         1.176458
 C         3.275613         0.462468         0.469602
 C         3.090892        -1.136011         0.442948
 C         3.238110        -1.080970        -1.093098
 C         2.497305         0.338221        -0.929488
 O         2.523180         1.341733        -1.933956
 O         1.681535        -1.306873         0.584766
 H        -0.724263        -0.459563         0.871324
 H        -0.707264         0.816757        -0.473814
 H        -0.448057        -0.906421        -0.851998
 H         2.050826         2.115690         0.897289
 H         1.854205         0.844266         2.284081
 H         4.303782         0.738752         0.436870
 H         3.475469        -1.932638         1.064368
 H         4.315685        -0.960219        -1.332215
 H         2.808479        -1.924610        -1.683955
 H         2.152010         0.850395        -2.704469
