19
Iteration:  4108charge 0 multiplicity 1
 C        -0.063455         0.098506        -0.298774
 C         1.331290        -0.021377         0.181021
 C         2.015629         0.958746         1.174256
 C         3.361507         0.429377         0.514321
 C         3.224461        -1.112154         0.402026
 C         3.182065        -1.126326        -1.178505
 C         2.515707         0.237215        -0.839412
 O         2.118479         1.216033        -1.874092
 O         1.755760        -1.281579         0.811045
 H        -0.878338        -0.145438         0.444558
 H        -0.203638         1.103452        -0.648181
 H        -0.285206        -0.376101        -1.353219
 H         1.661930         1.934231         1.000084
 H         1.713796         0.701048         2.175797
 H         4.343458         0.860883         0.526856
 H         3.880532        -1.847651         0.889500
 H         4.184857        -1.182154        -1.564043
 H         2.442979        -1.819977        -1.651583
 H         2.866212         1.783208        -2.069065
