19
Iteration:  3883charge 0 multiplicity 1
 C        -0.173822        -0.042829        -0.005460
 C         1.318700        -0.025264         0.188606
 C         2.031438         1.053584         1.150523
 C         3.276630         0.500729         0.505198
 C         3.182387        -1.142192         0.415291
 C         3.153563        -1.165603        -1.155122
 C         2.484293         0.298000        -0.871340
 O         2.465889         1.309563        -1.906455
 O         1.653145        -1.304864         0.593392
 H        -0.785581        -0.207617         0.990100
 H        -0.710612         0.774722        -0.433720
 H        -0.357585        -0.959336        -0.517264
 H         1.876306         1.985527         0.564489
 H         1.801419         1.098176         2.203527
 H         4.172957         1.098244         0.478945
 H         3.719247        -1.971089         0.931797
 H         4.066395        -1.073134        -1.721249
 H         2.475801        -1.978968        -1.422229
 H         3.086027         0.981743        -2.605358
