19
Iteration:    99
 C        -0.270467         0.174998        -0.236980
 C         1.251358         0.038342         0.042053
 C         2.010048         0.963020         1.122179
 C         3.294658         0.383741         0.490225
 C         3.140330        -1.183461         0.488237
 C         3.190793        -1.153137        -1.082556
 C         2.649383         0.191891        -0.843944
 O         2.512356         1.270213        -1.881113
 O         1.698293        -1.302296         0.693004
 H        -0.713851        -0.067382         0.805631
 H        -0.709368         1.180303        -0.573486
 H        -0.666567        -0.628754        -0.899971
 H         1.922520         2.026168         0.831447
 H         1.892023         0.808662         2.211786
 H         4.246338         0.843137         0.664841
 H         3.700550        -1.928053         1.111235
 H         4.104437        -1.165803        -1.500522
 H         2.508843        -1.734430        -1.572296
 H         1.689660         1.725533        -1.632136
