19
Iteration:  4677charge 0 multiplicity 1
 C        -0.164284         0.012220        -0.081557
 C         1.308237         0.012838         0.185765
 C         1.983012         0.990494         1.127314
 C         3.362075         0.486245         0.478688
 C         3.123083        -1.161589         0.529924
 C         3.191045        -1.031692        -1.155592
 C         2.496365         0.255708        -0.879289
 O         2.425073         1.241772        -1.923354
 O         1.711287        -1.332162         0.608329
 H        -0.663374        -0.077813         0.894908
 H        -0.569371         0.855900        -0.673262
 H        -0.481590        -0.850173        -0.776821
 H         1.904053         2.105931         0.914298
 H         2.026169         0.759002         2.246420
 H         4.410010         0.862392         0.608941
 H         3.592019        -1.824153         1.223614
 H         4.243979        -0.868792        -1.428506
 H         2.666893        -1.757010        -1.786922
 H         1.626655         1.006133        -2.455063
