19
Iteration:   528charge 0 multiplicity 1
 C        -0.143424         0.172366        -0.202621
 C         1.330549         0.076288         0.149962
 C         2.084472         1.015845         1.168038
 C         3.346037         0.340183         0.449472
 C         3.053187        -1.227591         0.478272
 C         3.209537        -1.222387        -1.137643
 C         2.556869         0.173871        -0.909036
 O         2.325020         1.335155        -1.727293
 O         1.633672        -1.254586         0.625843
 H        -0.734798         0.079887         0.702322
 H        -0.280741         1.074770        -0.734662
 H        -0.418846        -0.677266        -0.850856
 H         2.024167         1.994346         0.612793
 H         1.916238         0.946948         2.252405
 H         4.391524         0.706782         0.600171
 H         3.655101        -1.797645         1.145618
 H         4.356111        -0.976444        -1.384435
 H         2.937908        -2.117583        -1.846447
 H         2.088202         1.071933        -2.631272
