19
Iteration:  3660charge 0 multiplicity 1
 C        -0.085731         0.085810        -0.183440
 C         1.362295         0.050205         0.107085
 C         2.041205         0.979608         1.089199
 C         3.357775         0.524756         0.484655
 C         3.173555        -1.174251         0.425510
 C         3.240732        -1.087629        -1.106119
 C         2.590934         0.250445        -0.872415
 O         2.249861         1.219712        -1.890846
 O         1.635724        -1.356672         0.739201
 H        -0.635636        -0.251649         0.722255
 H        -0.545923         1.097989        -0.556562
 H        -0.423884        -0.685375        -1.021706
 H         1.677303         2.038077         1.076633
 H         1.870329         0.640280         2.195793
 H         4.357696         0.975181         0.669877
 H         3.660849        -1.982197         0.950417
 H         4.296655        -1.025637        -1.379066
 H         2.639971        -1.891903        -1.581005
 H         1.295907         1.264675        -1.794968
