19
Iteration:  2071charge 0 multiplicity 1
 C        -0.265887        -0.007517        -0.162716
 C         1.230762        -0.091682         0.191153
 C         1.932026         0.953055         1.216855
 C         3.180013         0.500142         0.539810
 C         3.137497        -1.119738         0.370218
 C         3.246822        -1.067030        -1.119469
 C         2.545968         0.347443        -0.892158
 O         2.658524         1.345723        -1.923422
 O         1.721315        -1.383977         0.671128
 H        -0.830897        -0.347493         0.848697
 H        -0.636477         1.004174        -0.442195
 H        -0.433091        -0.617603        -0.924023
 H         1.632215         2.022671         0.880505
 H         1.727899         0.709902         2.298469
 H         4.094137         1.153281         0.646999
 H         3.644761        -1.799280         1.003110
 H         4.317855        -1.191016        -1.461306
 H         2.623733        -1.883256        -1.590228
 H         2.233933         0.922947        -2.754621
