19
Iteration:  1852
 C        -0.141345        -0.026835        -0.413098
 C         1.328958         0.049563         0.174912
 C         1.997541         0.906087         1.219941
 C         3.265737         0.389980         0.577717
 C         3.194709        -1.161416         0.451456
 C         3.192544        -1.008875        -1.053459
 C         2.542230         0.317181        -0.807771
 O         2.318066         1.208950        -1.897936
 O         1.657664        -1.273857         0.660488
 H        -0.899785        -0.243830         0.485948
 H        -0.390121         1.037692        -0.885019
 H        -0.117836        -0.788074        -1.205785
 H         1.894910         2.020525         1.130959
 H         1.878694         0.680378         2.265951
 H         4.178575         1.011463         0.755818
 H         3.805110        -2.001040         0.788601
 H         4.188661        -0.843912        -1.312870
 H         2.693997        -1.668680        -1.712082
 H         3.109672         1.776578        -2.113321
