19
Iteration:  4344
 C        -0.251955         0.043364        -0.083229
 C         1.291509        -0.003921         0.187054
 C         2.021470         0.978834         1.136360
 C         3.273256         0.448575         0.535622
 C         3.136409        -1.153797         0.388837
 C         3.184049        -1.005308        -1.182441
 C         2.467275         0.218245        -0.853083
 O         2.454224         1.256724        -1.850794
 O         1.804049        -1.335266         0.681686
 H        -0.684768        -0.047466         0.901888
 H        -0.391147         1.014333        -0.712734
 H        -0.520942        -0.754675        -0.846737
 H         1.874679         1.914813         0.586347
 H         1.728083         1.174472         2.225871
 H         4.154693         1.020357         0.353600
 H         3.791450        -1.893870         0.795013
 H         4.154494        -0.954581        -1.731535
 H         2.613460        -1.844385        -1.522369
 H         2.215616         0.849919        -2.690702
