19
Iteration:  3423
 C        -0.157414        -0.003960        -0.153450
 C         1.293519         0.056753         0.200937
 C         2.047424         0.984553         1.185665
 C         3.239127         0.461821         0.395692
 C         3.151650        -1.107909         0.453301
 C         3.223035        -1.138362        -1.084697
 C         2.460820         0.215305        -0.876810
 O         2.473058         1.253088        -1.804854
 O         1.683828        -1.307387         0.564468
 H        -0.803294        -0.445594         0.762522
 H        -0.450584         1.051816        -0.419304
 H        -0.354652        -0.535163        -1.033914
 H         1.759934         1.955913         1.037123
 H         2.083348         0.788359         2.227208
 H         4.244754         0.977216         0.470742
 H         3.901288        -1.531622         1.090690
 H         4.122030        -0.840385        -1.593661
 H         2.758705        -2.006325        -1.591753
 H         1.661102         1.368533        -2.358537
