19
Iteration:  4197charge 0 multiplicity 1
 C        -0.189268         0.014874         0.017904
 C         1.309466        -0.066420         0.192080
 C         1.945646         0.926722         1.101281
 C         3.145447         0.477166         0.457209
 C         3.153066        -1.120921         0.355519
 C         3.205437        -1.037667        -1.115545
 C         2.561104         0.285427        -0.936694
 O         2.426273         1.221130        -1.949978
 O         1.752603        -1.315106         0.691501
 H        -0.699493         0.079491         1.074922
 H        -0.372417         1.030392        -0.435882
 H        -0.699998        -0.767674        -0.604424
 H         1.650385         1.927437         0.762162
 H         1.815719         0.882604         2.143305
 H         4.181013         0.796542         0.661952
 H         3.896022        -1.741841         0.963918
 H         4.220763        -0.894397        -1.388044
 H         2.859093        -1.781383        -1.866975
 H         3.238939         1.750571        -1.850155
