19
Iteration:  2912charge 0 multiplicity 1
 C        -0.267999         0.069150        -0.061284
 C         1.279720        -0.061350         0.092784
 C         1.905916         0.864497         1.114258
 C         3.243814         0.455542         0.508865
 C         3.169035        -1.141077         0.458991
 C         3.209766        -1.064792        -1.169387
 C         2.555310         0.272042        -0.939649
 O         2.518326         1.305213        -1.949513
 O         1.753161        -1.363008         0.704408
 H        -0.586251        -0.249221         0.936001
 H        -0.548889         1.213744        -0.156092
 H        -0.900505        -0.551044        -0.802554
 H         1.529563         1.868839         0.788616
 H         1.873509         0.847824         2.191403
 H         4.288182         0.943758         0.726573
 H         3.976823        -1.669617         1.046745
 H         4.296863        -0.922317        -1.561823
 H         2.717680        -1.908823        -1.694387
 H         2.394103         2.149126        -1.425503
