19
Iteration:  1071charge 0 multiplicity 1
 C        -0.120927         0.077083        -0.284912
 C         1.312893        -0.027301         0.131502
 C         1.879575         0.951598         1.143692
 C         3.182123         0.484997         0.469002
 C         3.098084        -1.170152         0.421696
 C         3.331428        -1.183480        -1.118805
 C         2.593166         0.302145        -0.907970
 O         2.445377         1.306773        -1.803181
 O         1.668991        -1.347385         0.713730
 H        -0.714884         0.076865         0.662872
 H        -0.236786         0.817771        -0.968676
 H        -0.361796        -0.942391        -0.670543
 H         1.598408         2.033643         0.827300
 H         1.797516         0.742655         2.266755
 H         4.072560         1.080989         0.827328
 H         3.664273        -1.858068         1.046467
 H         4.377071        -1.189167        -1.526942
 H         2.702880        -1.951807        -1.735691
 H         2.481614         2.151936        -1.358742
