19
Iteration:  2778charge 0 multiplicity 1
 C        -0.124658         0.033339        -0.211056
 C         1.344791        -0.051629         0.047668
 C         1.942102         0.963416         1.144195
 C         3.292163         0.380907         0.519399
 C         3.118896        -1.186224         0.461663
 C         3.222966        -1.042706        -1.165787
 C         2.560357         0.260047        -0.863591
 O         2.288017         1.212176        -1.804650
 O         1.734974        -1.196831         0.655584
 H        -0.476716        -0.396013         0.690883
 H        -0.533385         1.107532        -0.259965
 H        -0.467387        -0.651640        -0.888259
 H         1.921699         1.990608         0.863641
 H         1.666666         0.723776         2.203665
 H         4.293254         0.699501         0.533138
 H         3.717263        -1.871002         1.061198
 H         4.341364        -0.846872        -1.387192
 H         2.747279        -1.838195        -1.839378
 H         2.664730         2.082859        -1.594214
