19
Iteration:  3677charge 0 multiplicity 1
 C        -0.171752         0.019692        -0.106453
 C         1.314153         0.025173         0.190120
 C         2.024175         1.001636         1.167091
 C         3.260877         0.371150         0.529703
 C         3.150147        -1.136375         0.452459
 C         3.214504        -1.089049        -1.127263
 C         2.479186         0.260761        -0.897745
 O         2.368642         1.201555        -1.912001
 O         1.780525        -1.225469         0.590090
 H        -0.641271        -0.257484         0.823900
 H        -0.373158         1.001556        -0.349491
 H        -0.397929        -0.749259        -0.804433
 H         2.064096         2.026251         0.723914
 H         1.670906         1.086427         2.159981
 H         4.277378         0.714920         0.583051
 H         3.676570        -1.839021         1.147467
 H         4.281473        -0.900998        -1.497091
 H         2.847941        -1.946532        -1.702709
 H         1.482690         1.345837        -2.239375
