19
Iteration:  1381
 C        -0.104895        -0.045774        -0.332437
 C         1.307097         0.048187         0.090137
 C         1.985988         1.035378         1.115729
 C         3.298415         0.402553         0.645911
 C         3.120257        -1.206853         0.451814
 C         3.322894        -1.157404        -1.084897
 C         2.605608         0.251990        -0.850140
 O         2.238740         1.305403        -1.746995
 O         1.653188        -1.217525         0.603235
 H        -0.717521        -0.470714         0.582172
 H        -0.670457         0.897814        -0.702267
 H        -0.273498        -0.678533        -1.158649
 H         1.716926         2.024795         0.774608
 H         1.772922         0.903033         2.231747
 H         4.299052         0.841571         0.699940
 H         3.405224        -2.118027         1.020270
 H         4.271475        -0.873630        -1.372972
 H         3.012884        -1.894540        -1.767340
 H         3.008200         1.563878        -2.243014
