19
Iteration:  1067
 C        -0.082094         0.051409        -0.297691
 C         1.281833        -0.038361         0.133946
 C         1.894238         0.963115         1.165309
 C         3.173415         0.514916         0.445897
 C         3.068151        -1.143495         0.416623
 C         3.328151        -1.198033        -1.119835
 C         2.577323         0.270141        -0.902046
 O         2.451093         1.303018        -1.778117
 O         1.683711        -1.342815         0.700251
 H        -0.642467         0.091084         0.641185
 H        -0.157400         1.028782        -1.004339
 H        -0.419687        -0.920720        -0.665368
 H         1.678978         1.949212         0.904977
 H         1.800799         0.650250         2.222310
 H         4.088484         0.979776         0.625984
 H         3.637896        -1.820948         1.108121
 H         4.322465        -1.188914        -1.443081
 H         2.781984        -1.858969        -1.660143
 H         2.386384         2.221022        -1.400433
