19
Iteration:  3173
 C        -0.144139         0.065382        -0.180545
 C         1.316220        -0.032191         0.204533
 C         2.073849         0.946234         1.236596
 C         3.303386         0.478692         0.446855
 C         3.086512        -1.169961         0.404118
 C         3.127920        -1.074106        -1.201096
 C         2.571269         0.310241        -0.892882
 O         2.424611         1.226066        -1.987257
 O         1.697718        -1.348962         0.780098
 H        -0.914084         0.064470         0.632626
 H        -0.166619         1.066717        -0.722514
 H        -0.479232        -0.646183        -0.866408
 H         1.719693         2.055894         1.217553
 H         2.016917         0.578093         2.376186
 H         4.258839         0.983711         0.734004
 H         3.719057        -1.908149         0.872892
 H         4.209850        -1.058382        -1.383347
 H         2.460019        -1.788847        -1.747224
 H         1.730902         1.855924        -1.822032
