19
Iteration:  4560charge 0 multiplicity 1
 C        -0.264314         0.027876         0.010874
 C         1.235818        -0.033078         0.219995
 C         1.968339         0.940965         1.138590
 C         3.206973         0.471612         0.439906
 C         3.175929        -1.147961         0.421616
 C         3.258903        -1.111374        -1.159354
 C         2.567136         0.289424        -0.902264
 O         2.526784         1.313280        -1.882961
 O         1.708767        -1.315491         0.621821
 H        -0.712616        -0.153450         1.045719
 H        -0.583394         0.988964        -0.526386
 H        -0.424433        -0.758302        -0.673507
 H         1.869765         1.917334         0.729620
 H         1.954023         0.986086         2.236123
 H         4.149655         1.076429         0.353191
 H         3.749687        -1.880878         0.998958
 H         4.321511        -0.903264        -1.645529
 H         2.786610        -2.019049        -1.617821
 H         1.866472         1.068333        -2.560442
