19
Iteration:  1091
 C        -0.225699        -0.023865        -0.274380
 C         1.249101        -0.041027         0.088468
 C         1.938793         0.968301         1.089940
 C         3.315891         0.370281         0.647073
 C         3.110786        -1.136937         0.465281
 C         3.217471        -1.019224        -1.067163
 C         2.554692         0.287967        -0.839440
 O         2.458547         1.279015        -1.886607
 O         1.738570        -1.311770         0.632647
 H        -0.758399         0.122861         0.712928
 H        -0.252027         0.898110        -0.931924
 H        -0.699652        -0.970546        -0.606980
 H         1.974653         1.969808         0.665430
 H         1.482770         0.795666         2.123337
 H         4.290136         0.697736         0.721199
 H         3.647882        -1.915904         1.051099
 H         4.189611        -0.852877        -1.385060
 H         2.722199        -1.701790        -1.717055
 H         2.844210         2.144909        -1.697000
