19
Iteration:  2340
 C        -0.089501         0.064071        -0.430206
 C         1.304474        -0.101337         0.093651
 C         1.943208         0.910662         1.171481
 C         3.340089         0.444361         0.522121
 C         3.228722        -1.076281         0.428224
 C         3.192882        -1.049897        -1.123246
 C         2.494299         0.231259        -0.817344
 O         2.340646         1.310315        -1.720792
 O         1.720725        -1.326760         0.744844
 H        -0.751871         0.061332         0.313295
 H        -0.120564         1.112579        -0.926404
 H        -0.424519        -0.734076        -1.203914
 H         1.829326         2.026333         0.925478
 H         1.709524         0.679734         2.235615
 H         4.331359         0.944362         0.766193
 H         3.724139        -1.750876         1.088263
 H         4.099280        -0.960449        -1.624093
 H         2.507533        -1.783842        -1.487914
 H         1.675476         1.127347        -2.404562
