19
Iteration:   513charge 0 multiplicity 1
 C        -0.091809         0.183992        -0.203974
 C         1.324199        -0.060294         0.148341
 C         2.096210         1.017551         1.021592
 C         3.301515         0.445661         0.361124
 C         3.072609        -1.220955         0.420776
 C         3.203397        -1.146430        -1.066822
 C         2.503465         0.218067        -0.858992
 O         2.407986         1.339346        -1.695232
 O         1.606426        -1.353469         0.719564
 H        -0.733973         0.189794         0.687587
 H        -0.186605         1.171360        -0.704086
 H        -0.538364        -0.514975        -0.851258
 H         1.809037         2.036202         0.983982
 H         2.016940         0.782013         2.116720
 H         4.271046         0.813109         0.196051
 H         3.451498        -2.077039         1.036448
 H         4.272428        -1.120812        -1.361725
 H         2.533605        -1.824302        -1.559359
 H         2.484122         1.054417        -2.597147
