19
Iteration:  1624charge 0 multiplicity 1
 C        -0.138368         0.028873        -0.324547
 C         1.271217        -0.022770         0.173597
 C         1.864086         0.927363         1.179911
 C         3.219311         0.428694         0.601533
 C         3.175314        -1.113067         0.350081
 C         3.291716        -1.051557        -1.140148
 C         2.544953         0.254999        -0.780844
 O         2.388190         1.261291        -1.786535
 O         1.724129        -1.301627         0.649512
 H        -0.792290         0.153595         0.456022
 H        -0.378838         1.013494        -0.916772
 H        -0.498451        -0.781373        -1.008428
 H         1.859262         2.002882         0.778155
 H         1.566942         0.838918         2.224448
 H         4.225120         0.876583         0.710352
 H         3.827494        -1.752363         0.980521
 H         4.382741        -0.858986        -1.309951
 H         2.801490        -1.882047        -1.690428
 H         2.993232         1.137100        -2.545997
