19
Iteration:  1013
 C         0.009843         0.009936        -0.307603
 C         1.345336        -0.030363         0.124835
 C         1.893353         0.999453         1.257855
 C         3.295226         0.417641         0.634022
 C         3.075299        -1.176604         0.451830
 C         3.194655        -0.977452        -1.112457
 C         2.624211         0.310217        -0.909876
 O         2.391332         1.125389        -1.924674
 O         1.651038        -1.272934         0.638345
 H        -0.726287        -0.255739         0.440598
 H        -0.382579         1.125073        -0.447628
 H        -0.028170        -0.524282        -1.255677
 H         1.602828         2.048785         1.110789
 H         1.637184         0.656192         2.354550
 H         4.206036         0.671166         0.967575
 H         3.586741        -2.058832         0.934431
 H         4.186598        -0.789575        -1.367060
 H         2.702587        -1.538247        -1.830056
 H         1.813361         1.919941        -1.801243
