19
Iteration:   453charge 0 multiplicity 1
 C        -0.116437         0.100953        -0.181540
 C         1.338950         0.042767         0.175934
 C         2.151213         0.944153         1.232181
 C         3.350684         0.394616         0.475908
 C         2.937634        -1.124872         0.450528
 C         3.155480        -1.052963        -1.096906
 C         2.530424         0.256121        -0.842569
 O         2.468825         1.257969        -1.898531
 O         1.564258        -1.293970         0.607193
 H        -0.622923        -0.160984         0.807714
 H        -0.572618         1.024472        -0.647191
 H        -0.094917        -0.830050        -0.932332
 H         1.956422         2.025301         0.977027
 H         2.082071         0.488944         2.210008
 H         4.493550         0.638566         0.546528
 H         3.425800        -1.733504         1.181866
 H         4.167623        -1.077050        -1.359232
 H         2.659819        -1.639778        -1.855606
 H         2.323044         0.653264        -2.635880
