19
Iteration:  1703charge 0 multiplicity 1
 C        -0.164554         0.100274        -0.313347
 C         1.302434        -0.101178         0.041541
 C         1.872788         0.944627         1.029142
 C         3.234464         0.440744         0.524176
 C         3.168937        -1.142107         0.475636
 C         3.326220        -1.014955        -1.100804
 C         2.508521         0.218938        -0.841259
 O         2.331313         1.323787        -1.695785
 O         1.713626        -1.400964         0.735576
 H        -0.869801        -0.277235         0.350939
 H        -0.156294         1.136458        -0.395325
 H        -0.341825        -0.398161        -1.420913
 H         1.855313         1.938086         0.459179
 H         1.844849         1.150850         2.116040
 H         4.304461         0.862939         0.592513
 H         3.795100        -1.736031         1.116174
 H         4.397989        -0.975874        -1.385406
 H         2.786726        -1.888655        -1.542638
 H         3.194501         1.593976        -2.105804
