19
Iteration:  3238charge 0 multiplicity 1
 C        -0.233594        -0.012533         0.054260
 C         1.275440         0.021778         0.165871
 C         2.011746         0.990817         1.030478
 C         3.298978         0.387159         0.586579
 C         3.088693        -1.201470         0.401218
 C         3.216213        -1.064186        -1.158670
 C         2.633335         0.332598        -0.945889
 O         2.516462         1.247663        -1.937248
 O         1.641296        -1.321093         0.635507
 H        -0.608856        -0.404701         1.112853
 H        -0.499808         1.072026        -0.198296
 H        -0.667526        -0.524490        -0.706870
 H         1.925275         2.070706         0.641828
 H         1.655686         1.102331         2.171747
 H         4.338624         0.806840         0.641109
 H         3.768676        -1.833771         0.956877
 H         4.292519        -1.057978        -1.400917
 H         2.639749        -1.753669        -1.826768
 H         1.675377         1.776412        -1.983932
