19
Iteration:  3529
 C        -0.158445         0.033065        -0.035685
 C         1.292413        -0.095416         0.203357
 C         1.874217         0.975920         1.083434
 C         3.272501         0.471450         0.459988
 C         3.106389        -1.188501         0.415877
 C         3.140805        -1.083678        -1.165676
 C         2.560053         0.341546        -0.875098
 O         2.504398         1.343077        -1.916747
 O         1.788318        -1.353690         0.709337
 H        -0.636049        -0.029572         0.896762
 H        -0.430068         1.051119        -0.520485
 H        -0.473147        -0.807376        -0.722691
 H         1.773885         1.985036         0.661885
 H         1.849272         0.901781         2.203721
 H         4.175333         1.030756         0.749149
 H         3.683160        -1.854610         1.086095
 H         4.134593        -0.887086        -1.570699
 H         2.635984        -1.862330        -1.746568
 H         2.082003         0.726194        -2.559106
