19
Iteration:  3506
 C        -0.193512         0.015665        -0.223501
 C         1.327036         0.024034         0.137987
 C         2.070505         0.928704         1.234746
 C         3.341457         0.416431         0.529811
 C         3.126645        -1.072348         0.476075
 C         3.216325        -1.098742        -1.160956
 C         2.474946         0.229476        -0.971442
 O         2.376569         1.290778        -1.867603
 O         1.700381        -1.257235         0.719156
 H        -0.772588        -0.116491         0.638193
 H        -0.606252         0.943451        -0.740910
 H        -0.296260        -0.948493        -0.896697
 H         1.966186         2.060251         1.169744
 H         1.973323         0.491148         2.283156
 H         4.298416         0.891004         0.520132
 H         3.800485        -1.787376         0.989356
 H         4.232438        -0.950426        -1.601535
 H         2.729766        -1.968849        -1.610583
 H         1.611907         1.071849        -2.452314
