19
Iteration:  2360
 C        -0.158861         0.090685        -0.263406
 C         1.272961        -0.058528         0.157998
 C         1.869096         0.978391         1.078089
 C         3.180094         0.489966         0.482361
 C         3.176599        -1.194424         0.430026
 C         3.251201        -1.100490        -1.164305
 C         2.517600         0.224324        -0.851990
 O         2.471922         1.340035        -1.669685
 O         1.812436        -1.356959         0.687573
 H        -0.845440         0.060986         0.465472
 H        -0.233578         1.037672        -0.747773
 H        -0.487833        -0.745497        -0.979222
 H         1.641920         2.006106         0.640338
 H         1.576514         0.843616         2.132391
 H         4.154859         1.040072         0.446352
 H         3.853653        -1.773543         1.012965
 H         4.236667        -0.878016        -1.432388
 H         2.885023        -1.981375        -1.679463
 H         1.898522         1.035579        -2.365983
