19
Iteration:  3567charge 0 multiplicity 1
 C        -0.271587        -0.035401         0.001697
 C         1.255265         0.041121         0.129815
 C         2.038077         0.948827         1.064994
 C         3.253644         0.433016         0.429278
 C         3.135521        -1.150076         0.517770
 C         3.254928        -1.211291        -1.137765
 C         2.458651         0.245588        -0.928987
 O         2.490959         1.413306        -1.833932
 O         1.753368        -1.245970         0.635072
 H        -0.651634        -0.286588         1.043533
 H        -0.753574         0.801145        -0.351200
 H        -0.601580        -0.819835        -0.632497
 H         1.765320         1.981119         0.813668
 H         1.873512         0.730240         2.095683
 H         4.218258         0.926452         0.270329
 H         3.738703        -1.863022         1.076243
 H         4.241066        -0.785588        -1.451007
 H         3.036587        -2.151526        -1.669810
 H         2.260717         1.072781        -2.740617
