19
Iteration:  3649
 C        -0.105136         0.125180        -0.309437
 C         1.367726        -0.069025         0.172617
 C         2.075608         0.939840         1.159031
 C         3.334340         0.589763         0.405629
 C         3.088511        -1.164058         0.514847
 C         3.233929        -1.093742        -1.142515
 C         2.607091         0.266543        -0.930591
 O         2.204411         1.194098        -1.820554
 O         1.699780        -1.323622         0.762386
 H        -0.709886        -0.098338         0.605349
 H        -0.263082         1.278123        -0.517407
 H        -0.253424        -0.702042        -1.193278
 H         1.809146         2.034916         1.039223
 H         1.909007         0.436949         2.214182
 H         4.400413         0.865723         0.561206
 H         3.751572        -1.784524         1.117525
 H         4.248017        -1.202716        -1.530350
 H         2.656747        -1.819912        -1.779169
 H         1.287188         1.463661        -1.826972
