19
Iteration:  2238
 C        -0.290488        -0.035162        -0.100907
 C         1.232769         0.005481         0.065342
 C         1.935233         0.966605         1.110185
 C         3.260216         0.424860         0.451333
 C         3.132965        -1.126564         0.485081
 C         3.321408        -1.073927        -1.057295
 C         2.531094         0.256003        -0.896548
 O         2.582487         1.372204        -1.770958
 O         1.719483        -1.340167         0.599031
 H        -0.842445        -0.311280         0.847558
 H        -0.632772         0.903246        -0.292740
 H        -0.709746        -0.659895        -0.947078
 H         1.607514         1.947216         0.784009
 H         1.644020         0.603421         2.158340
 H         4.179161         0.939174         0.317059
 H         3.610554        -1.921358         1.173860
 H         4.320774        -0.772348        -1.458489
 H         2.905311        -1.900291        -1.667712
 H         2.145513         1.190996        -2.654345
