19
Iteration:   384charge 0 multiplicity 1
 C        -0.102806         0.139474        -0.252513
 C         1.303884         0.053832         0.193372
 C         2.054508         0.986664         1.142517
 C         3.316493         0.434633         0.517436
 C         3.047666        -1.189288         0.423010
 C         3.118544        -1.230720        -1.092217
 C         2.542244         0.281261        -0.895377
 O         2.476650         1.325605        -1.821478
 O         1.681475        -1.350411         0.661996
 H        -0.802401         0.007069         0.605204
 H        -0.293284         1.117495        -0.635574
 H        -0.300486        -0.594851        -1.003000
 H         1.761314         1.915056         0.681899
 H         1.929491         0.800881         2.217005
 H         4.269341         0.766580         0.489019
 H         3.611546        -1.908958         1.039439
 H         4.242432        -1.311335        -1.386411
 H         2.642862        -2.158344        -1.559924
 H         1.575549         1.589781        -2.134924
