19
Iteration:   139
 C        -0.098538         0.120886        -0.255764
 C         1.267427         0.021151         0.280328
 C         2.040976         0.937409         1.246093
 C         3.197676         0.441717         0.447923
 C         3.055974        -1.182941         0.448329
 C         3.158978        -1.097429        -1.144336
 C         2.566802         0.318651        -0.886707
 O         2.575231         1.248340        -1.903442
 O         1.622134        -1.343772         0.703342
 H        -0.847890         0.128667         0.510576
 H        -0.293481         1.071936        -0.752467
 H        -0.318034        -0.733777        -0.943800
 H         1.887743         2.044869         1.041582
 H         2.071970         0.843664         2.327366
 H         4.264758         0.879615         0.422021
 H         3.592999        -1.797308         1.101271
 H         4.235198        -1.032094        -1.640734
 H         2.493519        -1.870594        -1.711143
 H         2.013915         0.813412        -2.584480
