19
Iteration:   165
 C        -0.173271         0.115042        -0.291787
 C         1.365067         0.063276         0.085006
 C         2.043106         0.940307         1.130770
 C         3.376803         0.320877         0.587748
 C         3.104520        -1.195961         0.499332
 C         3.184844        -1.161349        -1.103179
 C         2.573284         0.259575        -0.882886
 O         2.322300         1.280842        -1.820021
 O         1.632566        -1.177088         0.656676
 H        -0.661581         0.005021         0.768347
 H        -0.692435         1.064142        -0.659675
 H        -0.533022        -0.738426        -0.885352
 H         2.032925         2.014955         0.990903
 H         1.864093         0.781628         2.219407
 H         4.361376         0.633199         0.709154
 H         3.495873        -2.079004         1.108061
 H         4.126674        -0.972177        -1.453683
 H         2.734125        -1.901314        -1.670754
 H         2.825176         0.972485        -2.618617
