19
Iteration:  1264
 C        -0.253177         0.009754        -0.234609
 C         1.267779        -0.025680         0.043967
 C         1.927439         0.994942         1.079559
 C         3.245963         0.398761         0.617659
 C         3.134952        -1.169361         0.434747
 C         3.390238        -1.091176        -1.103486
 C         2.555747         0.240531        -0.850408
 O         2.372850         1.341191        -1.800946
 O         1.684190        -1.312878         0.692278
 H        -0.679543         0.126361         0.684943
 H        -0.396038         0.876536        -0.975427
 H        -0.560063        -0.888865        -0.772917
 H         1.856434         2.021821         0.841968
 H         1.556537         0.782330         2.093454
 H         4.195323         0.816341         0.698033
 H         3.699140        -1.873534         1.057895
 H         4.491622        -0.804532        -1.408514
 H         3.029377        -1.813544        -1.861521
 H         3.186261         1.544394        -2.270292
