19
Iteration:   340charge 0 multiplicity 1
 C        -0.086360         0.103750        -0.263574
 C         1.323253         0.085155         0.200726
 C         2.055358         0.995456         1.240622
 C         3.370053         0.371114         0.487773
 C         2.976591        -1.227782         0.388693
 C         3.128828        -1.090237        -1.140207
 C         2.566718         0.271664        -0.840651
 O         2.475803         1.256214        -1.848237
 O         1.630909        -1.269910         0.686321
 H        -0.819864         0.046586         0.586642
 H        -0.369042         0.932616        -0.907703
 H        -0.271242        -0.819835        -0.789967
 H         1.997263         2.004442         0.903523
 H         1.791718         0.711667         2.287319
 H         4.339510         0.597618         0.651640
 H         3.595507        -1.978121         0.944246
 H         4.200521        -0.928967        -1.519366
 H         2.595861        -1.821292        -1.815356
 H         1.749846         0.905929        -2.432333
