19
Iteration:  3838charge 0 multiplicity 1
 C        -0.145391         0.060179        -0.172534
 C         1.249422         0.002336         0.211824
 C         2.062169         1.004254         1.119843
 C         3.340819         0.403179         0.446939
 C         3.165560        -1.211424         0.422816
 C         3.232956        -1.115188        -1.126068
 C         2.464341         0.216102        -0.929187
 O         2.235972         1.286703        -1.898908
 O         1.737208        -1.281897         0.760197
 H        -0.931359        -0.047830         0.719625
 H        -0.326042         1.084277        -0.432308
 H        -0.471320        -0.645348        -0.827521
 H         1.901618         2.037463         0.802365
 H         1.979261         0.861175         2.226492
 H         4.302397         0.881977         0.617949
 H         3.785123        -1.847645         1.094525
 H         4.253194        -0.867242        -1.390619
 H         2.892616        -1.873670        -1.840106
 H         3.121971         1.557418        -2.241506
