19
Iteration:  4540charge 0 multiplicity 1
 C        -0.268907         0.022286         0.073116
 C         1.275060        -0.068067         0.130783
 C         2.015932         0.994714         1.100961
 C         3.252243         0.492582         0.373181
 C         3.125412        -1.038786         0.445438
 C         3.303826        -1.128760        -1.110893
 C         2.395451         0.156050        -1.006561
 O         2.554917         1.347016        -1.794320
 O         1.704550        -1.366792         0.590965
 H        -0.791199         0.055017         1.042214
 H        -0.410159         1.061467        -0.406033
 H        -0.672809        -0.650566        -0.605045
 H         1.766886         2.032543         1.057276
 H         1.868963         0.687086         2.157863
 H         4.339708         0.677254         0.412326
 H         3.784842        -1.660182         1.153717
 H         4.314203        -0.669914        -1.254572
 H         2.979949        -2.071087        -1.606401
 H         2.010318         1.228112        -2.582297
