19
Iteration:  1707
 C        -0.182608         0.092490        -0.316162
 C         1.294521        -0.120399         0.096940
 C         1.890661         0.950334         1.001472
 C         3.214126         0.455486         0.504277
 C         3.149423        -1.141816         0.505578
 C         3.354504        -1.022583        -1.108175
 C         2.562356         0.201699        -0.865760
 O         2.352201         1.333400        -1.693137
 O         1.697380        -1.387314         0.715150
 H        -0.881606        -0.359862         0.549287
 H        -0.107539         1.205636        -0.321718
 H        -0.306999        -0.378318        -1.289396
 H         1.674306         1.893195         0.542150
 H         1.758889         1.084569         2.109489
 H         4.176315         0.890239         0.550398
 H         3.767684        -1.800764         1.142822
 H         4.320837        -0.944155        -1.511987
 H         2.775903        -1.764816        -1.597410
 H         3.152343         1.582368        -2.143445
