19
Iteration:  4663
 C        -0.143734         0.056124        -0.174311
 C         1.352762        -0.014416         0.117807
 C         2.039619         1.016549         1.149406
 C         3.242070         0.446876         0.533127
 C         3.147062        -1.150794         0.362374
 C         3.226215        -1.110004        -1.136583
 C         2.602329         0.286983        -0.873281
 O         2.331490         1.246105        -1.847443
 O         1.715008        -1.334942         0.730801
 H        -0.655016         0.024865         0.742911
 H        -0.308792         1.023308        -0.520512
 H        -0.502496        -0.819438        -0.836935
 H         1.827897         2.061125         0.717273
 H         1.590497         1.034292         2.151613
 H         4.162944         0.985201         0.626542
 H         3.841128        -1.818104         0.916087
 H         4.195852        -0.992821        -1.556262
 H         2.515548        -1.846884        -1.623531
 H         1.526795         0.927337        -2.297029
