19
Iteration:  2876
 C        -0.235397        -0.004921        -0.051490
 C         1.285045         0.010779         0.152233
 C         2.000443         0.985026         1.157893
 C         3.277061         0.435166         0.464589
 C         3.137598        -1.140529         0.434910
 C         3.274214        -1.025674        -1.110318
 C         2.503505         0.266633        -0.857282
 O         2.502655         1.235044        -1.904383
 O         1.671199        -1.366444         0.532316
 H        -0.734309        -0.163522         1.103653
 H        -0.780426         0.980897        -0.461194
 H        -0.503008        -0.827948        -0.658963
 H         1.783098         1.944393         0.766798
 H         2.021419         0.859282         2.265239
 H         4.217185         0.890536         0.579695
 H         3.625754        -1.873929         1.051546
 H         4.371557        -0.658935        -1.303387
 H         2.926860        -1.833816        -1.816365
 H         1.912141         1.995196        -1.678584
