19
Iteration:   874
 C        -0.149161         0.142663        -0.343177
 C         1.267923        -0.108938         0.238774
 C         1.885950         0.983220         1.125287
 C         3.228152         0.406069         0.523011
 C         3.121665        -1.154201         0.385068
 C         3.245008        -1.121109        -1.088180
 C         2.641022         0.344907        -0.899172
 O         2.399294         1.342951        -1.752699
 O         1.763422        -1.384180         0.716805
 H        -0.940539         0.472991         0.373330
 H        -0.013699         1.029202        -0.868740
 H        -0.471276        -0.686687        -0.973704
 H         1.559931         1.897622         0.729543
 H         1.725142         0.875450         2.152209
 H         4.317619         0.691055         0.750786
 H         3.802347        -1.737145         1.061290
 H         4.271777        -1.293237        -1.464856
 H         2.528190        -1.860891        -1.645465
 H         2.260310         0.896030        -2.635952
