19
Iteration:  1786
 C        -0.129201         0.040535        -0.345425
 C         1.282990        -0.083223         0.141752
 C         1.864830         0.925420         1.173558
 C         3.230145         0.451890         0.530560
 C         3.189610        -1.162321         0.511653
 C         3.228345        -1.057701        -1.135194
 C         2.535985         0.280427        -0.867277
 O         2.391508         1.331468        -1.814218
 O         1.716005        -1.343812         0.680278
 H        -0.768896         0.120358         0.659522
 H        -0.192784         1.040871        -1.021151
 H        -0.338969        -0.702504        -1.066881
 H         1.799862         2.042787         1.016427
 H         1.753594         0.663535         2.213164
 H         4.170483         1.016109         0.656323
 H         3.720902        -1.833168         1.244039
 H         4.267642        -0.867473        -1.445392
 H         2.751756        -1.834762        -1.719808
 H         3.203572         1.342980        -2.311963
