19
Iteration:  1369charge 0 multiplicity 1
 C        -0.152309        -0.039807        -0.398765
 C         1.324435         0.046439         0.144264
 C         2.023831         0.994797         1.162397
 C         3.326330         0.413324         0.542236
 C         3.124469        -1.165611         0.491067
 C         3.370747        -1.189977        -1.063134
 C         2.560461         0.310068        -0.842274
 O         2.199217         1.329942        -1.750157
 O         1.625631        -1.265168         0.555261
 H        -0.853860        -0.559150         0.460272
 H        -0.467783         1.025492        -0.527498
 H        -0.103969        -0.710513        -1.239360
 H         2.108664         2.049675         0.815343
 H         1.633970         0.928761         2.218278
 H         4.347053         0.710168         0.939492
 H         3.693992        -1.795776         1.234777
 H         4.325545        -1.216947        -1.363093
 H         2.739292        -1.986006        -1.369028
 H         2.959465         1.626260        -2.289120
