19
Iteration:  1733charge 0 multiplicity 1
 C        -0.229336        -0.057706        -0.210095
 C         1.304931         0.052747         0.049407
 C         1.890392         0.937376         1.176656
 C         3.235571         0.452275         0.576704
 C         3.100856        -1.135052         0.425080
 C         3.327194        -1.107950        -1.033974
 C         2.566667         0.277077        -0.876330
 O         2.409287         1.307035        -1.834243
 O         1.683019        -1.288730         0.567823
 H        -0.612485        -0.396192         0.724800
 H        -0.494435         1.009046        -0.486869
 H        -0.297510        -0.758641        -1.007537
 H         1.762340         2.051128         0.997215
 H         1.693173         0.805234         2.220638
 H         4.274667         0.845977         0.759478
 H         3.695722        -1.791011         1.067269
 H         4.508666        -0.990995        -1.278122
 H         2.905594        -2.028792        -1.589287
 H         3.249432         1.473588        -2.246050
