19
Iteration:  1154charge 0 multiplicity 1
 C        -0.126249         0.110048        -0.361193
 C         1.305870        -0.023329         0.050532
 C         1.896959         0.944615         1.084558
 C         3.329915         0.431087         0.592764
 C         3.187008        -1.111277         0.536246
 C         3.234365        -1.050088        -1.055262
 C         2.506741         0.233344        -0.862045
 O         2.347244         1.254940        -1.747430
 O         1.720682        -1.366600         0.658706
 H        -0.782007        -0.275914         0.424904
 H        -0.581467         1.221065        -0.390449
 H        -0.443401        -0.453363        -1.252324
 H         1.795609         1.965274         0.861111
 H         1.492686         0.732959         2.080061
 H         4.227165         0.972560         0.660044
 H         3.782208        -1.897150         1.058904
 H         4.231128        -0.776742        -1.500510
 H         2.696718        -1.752742        -1.671702
 H         3.005104         1.168483        -2.477186
