19
Iteration:   833charge 0 multiplicity 1
 C        -0.125816         0.021967        -0.249360
 C         1.298942         0.046853         0.138680
 C         1.981211         0.974942         1.184013
 C         3.262740         0.395488         0.475400
 C         3.047487        -1.148231         0.448069
 C         3.301989        -1.114480        -1.066435
 C         2.563097         0.213601        -0.834040
 O         2.328896         1.310624        -1.821599
 O         1.659202        -1.253231         0.614172
 H        -0.903400        -0.299180         0.552872
 H        -0.279293         1.012848        -0.688905
 H        -0.199172        -0.765883        -1.088447
 H         1.941846         2.074067         0.986644
 H         1.827578         0.716162         2.208786
 H         4.394229         0.662834         0.627382
 H         3.605342        -1.907399         1.023112
 H         4.332510        -0.876024        -1.241379
 H         2.978534        -1.917477        -1.575152
 H         3.051810         1.240070        -2.447284
