19
Iteration:  1711charge 0 multiplicity 1
 C        -0.181609         0.076847        -0.295456
 C         1.277871        -0.134603         0.140906
 C         1.909820         0.963921         1.002733
 C         3.195837         0.456928         0.491618
 C         3.136715        -1.140463         0.522163
 C         3.351568        -1.046200        -1.100928
 C         2.603936         0.208691        -0.882466
 O         2.359417         1.335355        -1.694087
 O         1.696191        -1.371529         0.689639
 H        -0.765325        -0.302805         0.492070
 H        -0.229272         1.228761        -0.326507
 H        -0.367406        -0.369276        -1.248583
 H         1.546303         1.939133         0.582990
 H         1.633791         0.957853         2.050106
 H         4.180963         0.974854         0.560403
 H         3.723819        -1.828675         1.142716
 H         4.424497        -0.884542        -1.602804
 H         2.758464        -1.798131        -1.732742
 H         3.195704         1.567870        -2.187157
