19
Iteration:  2535
 C        -0.206021        -0.032409        -0.228224
 C         1.326554        -0.033344         0.085278
 C         1.947159         0.845423         1.200789
 C         3.257058         0.474419         0.490900
 C         3.224260        -1.073285         0.435010
 C         3.177712        -1.086618        -1.097637
 C         2.434603         0.269010        -0.902712
 O         2.578214         1.340123        -1.841519
 O         1.731213        -1.300373         0.688450
 H        -0.853222         0.114938         0.748455
 H        -0.605474         0.861824        -0.625551
 H        -0.593345        -0.877485        -0.901581
 H         1.663756         1.918272         1.081679
 H         1.642219         0.496289         2.182810
 H         4.091524         1.233065         0.609850
 H         3.811887        -1.696880         1.111377
 H         4.097500        -0.847592        -1.629565
 H         2.647398        -2.059041        -1.401436
 H         1.752945         1.397746        -2.335649
