19
Iteration:  4429charge 0 multiplicity 1
 C        -0.059442         0.037736        -0.249981
 C         1.327152        -0.030296         0.210046
 C         2.005079         1.084078         1.026697
 C         3.324590         0.461704         0.484807
 C         3.138955        -1.156106         0.467385
 C         3.111413        -1.123438        -1.161516
 C         2.531781         0.187036        -0.806211
 O         2.328117         1.313860        -1.780846
 O         1.767340        -1.359359         0.662916
 H        -0.737462        -0.157826         0.628776
 H        -0.314934         1.124208        -0.305290
 H        -0.403421        -0.591860        -0.979966
 H         1.772476         2.022604         0.598005
 H         1.874967         1.074134         2.086920
 H         4.313814         0.854907         0.703986
 H         3.745420        -1.852080         0.926290
 H         4.156926        -0.891774        -1.464403
 H         2.625614        -1.957244        -1.636654
 H         1.418069         1.107214        -2.129942
