19
Iteration:  4778
 C        -0.096021         0.032260        -0.331495
 C         1.348444        -0.009777         0.197197
 C         2.148556         0.980997         1.177390
 C         3.317866         0.427479         0.462473
 C         3.167853        -1.122549         0.527922
 C         3.156785        -1.149652        -1.161517
 C         2.500578         0.211256        -0.916707
 O         2.234111         1.293779        -1.849004
 O         1.708767        -1.207960         0.776096
 H        -0.738301        -0.263830         0.605411
 H        -0.632065         0.986312        -0.752300
 H        -0.221513        -0.754378        -1.026685
 H         1.922125         2.064459         1.066126
 H         2.089407         0.572981         2.235840
 H         4.275452         0.959696         0.385556
 H         3.699950        -2.040928         0.866317
 H         4.211332        -0.751632        -1.293141
 H         2.748751        -1.944676        -1.758716
 H         1.557673         0.900605        -2.425110
