19
Iteration:    21
 C        -0.010699         0.185234        -0.275545
 C         1.371769         0.000822         0.155855
 C         1.871210         0.973161         1.299215
 C         3.327576         0.435348         0.435964
 C         3.138406        -1.193096         0.479296
 C         3.052121        -1.160524        -1.107103
 C         2.509700         0.259555        -0.855211
 O         2.520281         1.233222        -2.027334
 O         1.663524        -1.361138         0.733210
 H        -0.693158        -0.027010         0.600122
 H        -0.228790         1.285428        -0.578825
 H        -0.282903        -0.509945        -1.163486
 H         1.458011         2.022061         1.407541
 H         1.618144         0.497716         2.242254
 H         4.357090         0.968369         0.401581
 H         3.683790        -1.811959         1.129168
 H         3.925998        -1.081753        -1.603849
 H         2.438510        -1.902616        -1.426304
 H         2.195742         2.126114        -1.705093
