19
Iteration:  1385
 C        -0.130992        -0.030687        -0.301053
 C         1.346178         0.048281         0.047826
 C         1.944071         1.035625         1.112908
 C         3.294794         0.384073         0.634296
 C         3.073577        -1.207268         0.431840
 C         3.277613        -1.097745        -1.076971
 C         2.591193         0.232197        -0.856787
 O         2.274076         1.280156        -1.739307
 O         1.684557        -1.249382         0.636983
 H        -0.592299        -0.371100         0.521487
 H        -0.621816         0.932831        -0.673148
 H        -0.141712        -0.780156        -1.161240
 H         1.790120         2.079901         0.794836
 H         1.812752         0.905205         2.187651
 H         4.218095         0.923812         0.656385
 H         3.481940        -2.031860         1.019206
 H         4.420812        -0.724182        -1.279959
 H         2.981649        -1.852111        -1.868854
 H         3.072345         1.586010        -2.264608
