19
Iteration:   732
 C        -0.088431         0.077731        -0.232568
 C         1.303024         0.116767         0.116635
 C         2.004244         1.045647         1.197855
 C         3.312551         0.352893         0.481215
 C         3.070943        -1.225259         0.362822
 C         3.301044        -1.142465        -1.087766
 C         2.530054         0.245329        -0.893560
 O         2.307924         1.265095        -1.756533
 O         1.616732        -1.305262         0.655021
 H        -0.592379         0.128605         0.788074
 H        -0.354172         1.060435        -0.699983
 H        -0.231356        -0.813494        -0.840246
 H         1.902047         2.043422         0.912766
 H         1.589183         0.899304         2.155300
 H         4.345145         0.679704         0.532908
 H         3.583702        -1.916485         1.034046
 H         4.267467        -0.868003        -1.309000
 H         2.996621        -1.947172        -1.604538
 H         3.014111         1.263020        -2.485324
