19
Iteration:   117
 C        -0.143615         0.154570        -0.201803
 C         1.265981         0.048975         0.164155
 C         1.954779         0.936761         1.165699
 C         3.264916         0.427152         0.525744
 C         3.159180        -1.170108         0.387396
 C         3.095737        -1.130767        -1.121422
 C         2.412191         0.251836        -0.886634
 O         2.632083         1.187221        -1.859113
 O         1.738997        -1.313963         0.720730
 H        -0.906716         0.238587         0.534209
 H        -0.231448         1.160170        -0.651497
 H        -0.472102        -0.558354        -1.008237
 H         1.752784         2.050983         0.980300
 H         1.577606         0.739915         2.164836
 H         4.318124         0.918786         0.538189
 H         3.738447        -1.830158         0.950736
 H         4.174384        -0.932630        -1.561733
 H         2.659845        -2.081540        -1.635101
 H         1.878717         1.628526        -2.297028
