19
Iteration:  4250
 C        -0.119416        -0.005054        -0.108172
 C         1.354440         0.041663         0.150625
 C         2.019828         0.951032         1.184914
 C         3.290293         0.498884         0.508120
 C         3.099424        -1.135301         0.425062
 C         3.191842        -1.072462        -1.146650
 C         2.543183         0.293241        -0.936332
 O         2.355895         1.204933        -1.983089
 O         1.734842        -1.345337         0.757933
 H        -0.794945        -0.209830         0.743913
 H        -0.403974         0.923887        -0.551598
 H        -0.437386        -0.539858        -1.055278
 H         1.666468         1.965439         1.000848
 H         1.788994         0.728738         2.221980
 H         4.333280         0.818169         0.517376
 H         3.680172        -1.977930         0.993603
 H         4.159262        -0.839865        -1.574815
 H         2.726769        -1.892567        -1.788582
 H         1.806994         1.936433        -1.644849
