19
Iteration:  3275charge 0 multiplicity 1
 C        -0.079275         0.100568        -0.252794
 C         1.288972         0.041327         0.248385
 C         2.083377         0.939124         1.225544
 C         3.287114         0.472444         0.445326
 C         3.184363        -1.096764         0.366611
 C         3.110435        -1.094899        -1.093274
 C         2.455866         0.215759        -0.830390
 O         2.390418         1.155651        -1.896020
 O         1.698627        -1.311373         0.651146
 H        -0.805530        -0.201298         0.384231
 H        -0.344561         1.094704        -0.405813
 H        -0.116324        -0.572242        -1.240937
 H         1.944826         2.084213         1.235014
 H         2.157635         0.444755         2.224606
 H         4.236925         0.941224         0.253426
 H         3.663874        -1.729616         1.124712
 H         4.073711        -0.929142        -1.622277
 H         2.551722        -1.914964        -1.591703
 H         1.770986         1.871907        -1.565090
