19
Iteration:  4514
 C        -0.227770         0.043190        -0.035389
 C         1.327298         0.000225         0.126543
 C         1.932423         0.973641         1.091097
 C         3.299270         0.454233         0.475827
 C         3.195198        -1.170780         0.367607
 C         3.270366        -1.096716        -1.140330
 C         2.514485         0.230786        -0.899047
 O         2.434601         1.316170        -1.832430
 O         1.706792        -1.298074         0.683841
 H        -0.562208        -0.040403         1.033245
 H        -0.554228         1.026140        -0.416819
 H        -0.642737        -0.756299        -0.764676
 H         1.814999         2.037891         0.787682
 H         1.575088         0.789057         2.105067
 H         4.349481         0.776813         0.679929
 H         3.791176        -1.829946         0.899249
 H         4.364717        -1.098121        -1.421376
 H         2.535538        -1.758999        -1.687522
 H         1.863854         0.888125        -2.480100
