19
Iteration:  2594
 C        -0.220986        -0.025503        -0.093122
 C         1.254739         0.028573         0.084183
 C         1.970224         0.986858         1.099855
 C         3.253424         0.338870         0.534304
 C         3.085038        -1.139923         0.402181
 C         3.339538        -1.059530        -1.114694
 C         2.534708         0.311158        -0.886980
 O         2.407205         1.304388        -1.787973
 O         1.745515        -1.307128         0.625548
 H        -0.675099        -0.379358         0.752761
 H        -0.604881         1.089031        -0.424311
 H        -0.645997        -0.632693        -0.875921
 H         1.825602         2.034313         0.830086
 H         1.502957         0.713145         2.094251
 H         4.191162         0.826675         0.659678
 H         3.721333        -1.707060         1.134676
 H         4.344802        -0.742951        -1.283860
 H         3.140232        -1.796324        -1.744627
 H         2.682878         0.889611        -2.658155
