19
Iteration:   138
 C        -0.099825         0.125818        -0.258451
 C         1.274752         0.011857         0.288650
 C         2.028929         0.938952         1.248688
 C         3.194481         0.437085         0.445413
 C         3.061064        -1.175493         0.448530
 C         3.156506        -1.097848        -1.147651
 C         2.560940         0.310134        -0.886840
 O         2.583528         1.249120        -1.904269
 O         1.620831        -1.337824         0.702714
 H        -0.821083         0.122722         0.512919
 H        -0.275996         1.058021        -0.744593
 H        -0.309696        -0.726981        -0.931352
 H         1.881868         2.033799         1.043390
 H         2.085555         0.856569         2.326379
 H         4.265356         0.877121         0.419923
 H         3.601510        -1.803260         1.104908
 H         4.244628        -1.004955        -1.663990
 H         2.479770        -1.874208        -1.730575
 H         1.986086         0.809317        -2.573200
