19
Iteration:  3813charge 0 multiplicity 1
 C        -0.002943         0.191854        -0.282685
 C         1.304011        -0.021904         0.200385
 C         2.048473         0.975943         1.177154
 C         3.333883         0.517810         0.461313
 C         3.234183        -1.098478         0.404500
 C         3.163974        -1.118807        -1.119057
 C         2.490790         0.198348        -0.831131
 O         2.134335         1.093548        -1.801557
 O         1.724388        -1.349651         0.655816
 H        -0.672956         0.049460         0.524845
 H        -0.251204         1.232873        -0.576751
 H        -0.371029        -0.537907        -1.041991
 H         1.775949         1.982682         0.803978
 H         1.938211         0.848144         2.348964
 H         4.327632         1.068562         0.460155
 H         3.879083        -1.651777         1.075172
 H         4.119952        -1.065856        -1.785510
 H         2.319147        -1.816070        -1.505141
 H         2.846518         1.771987        -1.902285
