19
Iteration:  3945
 C        -0.082045         0.159688        -0.226870
 C         1.350825        -0.034083         0.153165
 C         2.179344         0.993401         1.161881
 C         3.325351         0.445701         0.532146
 C         3.165713        -1.132577         0.517011
 C         3.178127        -1.100287        -1.085198
 C         2.521833         0.244472        -0.862604
 O         2.040782         1.174128        -1.849992
 O         1.726040        -1.325916         0.576060
 H        -0.689814        -0.208586         0.572830
 H        -0.258374         1.051841        -0.791197
 H        -0.126789        -0.559372        -1.078903
 H         2.067868         2.048778         0.862427
 H         1.806768         0.994256         2.242257
 H         4.310112         0.917420         0.596692
 H         3.698843        -1.858099         1.164832
 H         4.235332        -0.967302        -1.463059
 H         2.643722        -1.974298        -1.644856
 H         2.886693         1.597305        -2.158344
