19
Iteration:  1989
 C        -0.024639         0.067997        -0.426508
 C         1.327740        -0.019393         0.140991
 C         1.913179         0.949443         1.278409
 C         3.234226         0.464366         0.507846
 C         3.142540        -1.131710         0.398260
 C         3.082345        -1.031209        -1.084448
 C         2.485413         0.287544        -0.806930
 O         2.333704         1.176511        -1.862720
 O         1.832069        -1.351420         0.727173
 H        -0.877944         0.051844         0.134909
 H        -0.086568         1.032471        -0.972543
 H        -0.341808        -0.814297        -1.248541
 H         1.751514         2.013866         1.211783
 H         1.753469         0.625651         2.317538
 H         4.153124         0.963968         0.700631
 H         3.863158        -1.886928         0.884476
 H         4.129836        -0.699783        -1.438652
 H         2.642681        -1.880986        -1.681102
 H         2.954191         1.875356        -1.634798
