19
Iteration:  4470
 C        -0.078253        -0.000655        -0.359849
 C         1.325453         0.030209         0.207187
 C         2.096677         1.006262         1.246804
 C         3.378182         0.450327         0.425236
 C         3.139081        -1.115736         0.394364
 C         3.118232        -1.130642        -1.131295
 C         2.467844         0.267811        -0.912293
 O         2.294655         1.252164        -1.767198
 O         1.718952        -1.275697         0.776528
 H        -0.931980        -0.321817         0.283796
 H        -0.324191         0.949393        -0.771955
 H        -0.045391        -0.700594        -1.269624
 H         1.836584         2.082799         1.376251
 H         2.025432         0.501770         2.201242
 H         4.388506         0.847825         0.206683
 H         3.690036        -1.827675         0.971528
 H         4.083374        -0.750308        -1.484752
 H         2.657868        -2.082399        -1.516447
 H         1.563914         1.126218        -2.384661
