19
Iteration:   631charge 0 multiplicity 1
 C        -0.080513         0.078840        -0.146992
 C         1.322431         0.003276         0.195626
 C         2.032449         1.045095         1.091638
 C         3.336176         0.408701         0.535903
 C         3.046204        -1.256697         0.416812
 C         3.220946        -1.196933        -1.122064
 C         2.593065         0.245187        -0.850057
 O         2.337221         1.346378        -1.832549
 O         1.571414        -1.282762         0.619410
 H        -0.531639        -0.314336         0.776376
 H        -0.246265         1.209974        -0.343232
 H        -0.416386        -0.555218        -0.998990
 H         1.993257         1.989685         0.651669
 H         1.728710         1.241055         2.111883
 H         4.427060         0.621740         0.601644
 H         3.567726        -1.960354         1.109649
 H         4.201101        -1.124881        -1.428734
 H         2.660641        -1.857875        -1.709479
 H         2.945675         1.338236        -2.614889
