19
Iteration:  1708
 C        -0.184553         0.086036        -0.315653
 C         1.290832        -0.124910         0.109735
 C         1.896233         0.953331         0.999774
 C         3.209225         0.456745         0.500500
 C         3.145466        -1.141291         0.510869
 C         3.354296        -1.026927        -1.105884
 C         2.574403         0.201379        -0.870868
 O         2.354207         1.334334        -1.692623
 O         1.695952        -1.383314         0.709011
 H        -0.858740        -0.355549         0.554268
 H        -0.124941         1.239922        -0.317306
 H        -0.309437        -0.360419        -1.241500
 H         1.634891         1.898863         0.556500
 H         1.727933         1.056384         2.091886
 H         4.162291         0.906308         0.547914
 H         3.760270        -1.814044         1.146634
 H         4.359959        -0.927352        -1.550688
 H         2.766052        -1.767127        -1.631215
 H         3.167897         1.582028        -2.159768
