19
Iteration:  1157charge 0 multiplicity 1
 C        -0.105766         0.116443        -0.354032
 C         1.284850        -0.008100         0.070815
 C         1.876518         0.974204         1.079149
 C         3.347995         0.433967         0.598072
 C         3.180495        -1.134155         0.521738
 C         3.240696        -1.049886        -1.088116
 C         2.510527         0.242310        -0.842528
 O         2.340457         1.238912        -1.732311
 O         1.732873        -1.367450         0.644596
 H        -0.897527        -0.310211         0.369120
 H        -0.522577         1.155656        -0.379829
 H        -0.413328        -0.470084        -1.271930
 H         1.754235         2.011493         0.753900
 H         1.494570         0.727146         2.098522
 H         4.245128         1.005233         0.687259
 H         3.738441        -1.891019         1.078212
 H         4.195849        -0.842023        -1.439607
 H         2.756666        -1.819543        -1.644605
 H         2.978098         1.124476        -2.468215
