19
Iteration:  2127charge 0 multiplicity 1
 C        -0.127102         0.040061        -0.299791
 C         1.325568         0.008633         0.168910
 C         2.020884         1.055050         1.112379
 C         3.318278         0.350470         0.542011
 C         3.115536        -1.179893         0.465447
 C         3.300637        -1.084365        -1.105987
 C         2.592713         0.295222        -0.862852
 O         2.219054         1.250597        -1.810308
 O         1.664660        -1.351282         0.619829
 H        -0.837058        -0.254637         0.599796
 H        -0.225861         0.986776        -0.668515
 H        -0.304483        -0.706264        -1.006021
 H         1.849875         2.079302         0.702174
 H         1.551030         0.913064         2.148554
 H         4.323089         0.716026         0.803095
 H         3.548908        -1.764637         1.289240
 H         4.385699        -0.924444        -1.378060
 H         2.779524        -1.807701        -1.764573
 H         2.752022         2.079257        -1.728960
