19
Iteration:  2620charge 0 multiplicity 1
 C        -0.084320         0.042400        -0.281694
 C         1.318879        -0.060884         0.188531
 C         2.004889         0.919584         1.226481
 C         3.250370         0.548472         0.489642
 C         3.170049        -1.141548         0.470057
 C         3.181769        -1.078518        -1.071250
 C         2.516406         0.319137        -0.857776
 O         2.309360         1.290771        -1.881026
 O         1.723983        -1.370903         0.623623
 H        -0.846102        -0.348934         0.541942
 H        -0.285758         1.030671        -0.572385
 H        -0.310668        -0.552927        -1.234563
 H         1.501979         1.898463         1.175398
 H         1.910045         0.530595         2.224834
 H         4.181604         1.151889         0.550032
 H         3.764004        -1.761574         1.092344
 H         4.143711        -1.216358        -1.645706
 H         2.388433        -1.817190        -1.561849
 H         3.246238         1.319631        -2.225413
