19
Iteration:   604
 C        -0.225569         0.209004        -0.215236
 C         1.244390         0.078510         0.129861
 C         2.058680         0.877064         1.114882
 C         3.288113         0.420216         0.451064
 C         3.095362        -1.209941         0.436188
 C         3.161462        -1.160496        -1.115898
 C         2.492229         0.221476        -0.837415
 O         2.439328         1.194244        -1.866418
 O         1.754532        -1.270236         0.704615
 H        -0.658946        -0.260338         0.666706
 H        -0.381572         1.214936        -0.376369
 H        -0.554700        -0.364892        -1.052652
 H         2.054243         2.036969         1.036366
 H         1.827167         0.732302         2.185225
 H         4.317839         0.746661         0.610895
 H         3.665471        -1.757198         1.160447
 H         4.185867        -0.805929        -1.645139
 H         2.605170        -2.012613        -1.743474
 H         2.985037         1.982897        -1.625146
