19
Iteration:   527
 C        -0.140905         0.173748        -0.206553
 C         1.326112         0.060976         0.150956
 C         2.084688         1.019390         1.165930
 C         3.351221         0.355205         0.440019
 C         3.054341        -1.233835         0.486490
 C         3.207810        -1.220647        -1.138032
 C         2.553519         0.175963        -0.908808
 O         2.328101         1.337884        -1.722033
 O         1.628715        -1.256129         0.626473
 H        -0.724590         0.094262         0.704981
 H        -0.278898         1.062748        -0.709892
 H        -0.402135        -0.651659        -0.828532
 H         2.012791         1.992134         0.618228
 H         1.899871         0.935696         2.252482
 H         4.372770         0.684794         0.545632
 H         3.665725        -1.815998         1.140685
 H         4.368636        -0.998423        -1.382833
 H         2.942786        -2.108719        -1.847716
 H         2.112962         1.065572        -2.644125
