19
Iteration:  3709charge 0 multiplicity 1
 C        -0.227760        -0.044912         0.003577
 C         1.246862        -0.034259         0.169137
 C         1.983345         0.935045         1.119102
 C         3.203334         0.531238         0.336776
 C         3.133347        -1.160244         0.364029
 C         3.145116        -1.121525        -1.111432
 C         2.548531         0.313494        -0.929302
 O         2.594789         1.326084        -1.868951
 O         1.745909        -1.277215         0.728526
 H        -0.553122        -0.198537         1.115662
 H        -0.588943         0.898390        -0.324481
 H        -0.699336        -0.762556        -0.617462
 H         1.758933         1.954753         0.851960
 H         1.828373         0.819714         2.121075
 H         4.222719         0.896293         0.335969
 H         3.684319        -1.888673         0.998154
 H         4.278858        -1.000896        -1.196802
 H         2.693861        -1.951888        -1.643475
 H         2.064968         0.966760        -2.625345
