19
Iteration:    62
 C        -0.155261         0.136609        -0.287286
 C         1.343242         0.101519         0.151040
 C         2.076306         1.054577         1.179299
 C         3.278161         0.345542         0.518789
 C         3.115708        -1.321430         0.470539
 C         3.202558        -1.076218        -1.064573
 C         2.502750         0.243638        -0.856836
 O         2.426012         1.162959        -1.891252
 O         1.610010        -1.262682         0.646092
 H        -0.600745        -0.249864         0.625559
 H        -0.690279         1.065677        -0.573598
 H        -0.318762        -0.676366        -1.067856
 H         1.914444         2.120542         0.781943
 H         1.867035         1.057977         2.255109
 H         4.416641         0.569853         0.446574
 H         3.645375        -2.055520         1.032725
 H         4.312157        -0.796354        -1.265751
 H         2.855731        -1.724534        -1.934964
 H         2.184723         2.001294        -1.517670
