19
Iteration:  3590
 C        -0.103263        -0.052487        -0.118884
 C         1.318749        -0.042779         0.185175
 C         2.028796         0.996374         1.123473
 C         3.250597         0.439526         0.434787
 C         3.075095        -1.137097         0.399852
 C         3.191484        -1.082986        -1.111812
 C         2.627169         0.333584        -0.943573
 O         2.406639         1.311723        -1.869090
 O         1.657784        -1.273758         0.731998
 H        -0.610430        -0.353692         0.814860
 H        -0.507286         0.856819        -0.455906
 H        -0.527289        -0.798731        -0.859680
 H         1.945565         2.125335         1.001372
 H         1.901211         0.744591         2.181282
 H         4.285735         0.731239         0.572019
 H         3.848617        -1.789399         0.838381
 H         4.289139        -1.157449        -1.416027
 H         2.605975        -1.893619        -1.583373
 H         1.604444         1.020716        -2.334724
