19
Iteration:    41charge 0 multiplicity 1
 C        -0.185448         0.142909        -0.297496
 C         1.239875         0.008387         0.200508
 C         2.068247         0.866517         1.185517
 C         3.271936         0.431264         0.566414
 C         3.080294        -1.092747         0.397593
 C         3.128585        -1.116881        -1.134273
 C         2.570363         0.262907        -0.857520
 O         2.493891         1.116257        -1.925179
 O         1.709495        -1.260928         0.719894
 H        -1.062978         0.028791         0.390155
 H        -0.272086         1.281605        -0.576954
 H        -0.276189        -0.465077        -1.318527
 H         2.027241         2.034850         1.091295
 H         1.931307         0.763351         2.265652
 H         4.356931         0.866595         0.807960
 H         3.635982        -1.813172         0.915483
 H         4.140745        -1.110635        -1.607264
 H         2.409974        -1.826860        -1.570973
 H         2.298184         2.050824        -1.649190
