19
Iteration:  1009
 C         0.028885         0.017523        -0.295580
 C         1.358424        -0.026270         0.134578
 C         1.916463         0.936957         1.214426
 C         3.279306         0.451140         0.602359
 C         3.084244        -1.177247         0.490176
 C         3.201078        -0.969612        -1.090338
 C         2.588808         0.309834        -0.894232
 O         2.403564         1.142516        -1.930042
 O         1.613944        -1.274601         0.627742
 H        -0.652014        -0.333133         0.498566
 H        -0.435534         1.061845        -0.418627
 H        -0.053152        -0.461078        -1.299963
 H         1.630780         1.990292         1.180851
 H         1.709173         0.660489         2.172619
 H         4.363571         0.700009         1.081004
 H         3.530574        -2.012437         0.969869
 H         4.265200        -0.739662        -1.414775
 H         2.623263        -1.587229        -1.833058
 H         1.781271         1.855104        -1.848156
