19
Iteration:  1175
 C        -0.071740         0.042451        -0.381061
 C         1.320543        -0.049340         0.218074
 C         1.940403         1.069495         1.173933
 C         3.167580         0.471252         0.593049
 C         3.106546        -1.196369         0.378200
 C         3.325667        -1.124781        -1.086103
 C         2.601925         0.257667        -0.805575
 O         2.277067         1.232298        -1.748344
 O         1.698868        -1.300780         0.613957
 H        -0.828076        -0.367362         0.217284
 H        -0.445095         1.206026        -0.475467
 H        -0.051088        -0.445302        -1.361851
 H         1.795517         1.988554         0.644675
 H         1.710860         1.319944         2.206781
 H         4.183761         0.771796         0.778721
 H         3.733396        -1.934779         0.948042
 H         4.436388        -0.899216        -1.437720
 H         2.759086        -1.813824        -1.776884
 H         2.918156         1.156128        -2.476078
