19
Iteration:  3032
 C        -0.247916         0.024126        -0.083971
 C         1.247909         0.055559         0.177137
 C         2.066702         0.957942         1.158314
 C         3.266106         0.414711         0.494171
 C         3.106184        -1.132333         0.431120
 C         3.319668        -1.061241        -1.161920
 C         2.528677         0.255651        -0.936632
 O         2.469155         1.299804        -1.856760
 O         1.665854        -1.350000         0.651606
 H        -0.927315        -0.010913         0.786935
 H        -0.463016         1.007589        -0.658114
 H        -0.570478        -0.857630        -0.685030
 H         1.824723         1.989596         1.012716
 H         1.902559         0.729860         2.174302
 H         4.317647         0.871054         0.459246
 H         3.603334        -1.835533         1.123700
 H         4.406410        -0.825304        -1.291838
 H         2.871618        -1.863606        -1.798005
 H         1.956810         0.961817        -2.586568
