19
Iteration:  1517
 C        -0.094123         0.086377        -0.470053
 C         1.326960        -0.012009         0.108849
 C         1.902711         0.893072         1.240024
 C         3.240929         0.456602         0.493042
 C         3.232154        -1.113394         0.480458
 C         3.199984        -1.151457        -1.082620
 C         2.567866         0.263522        -0.870407
 O         2.298157         1.307529        -1.784285
 O         1.723240        -1.295777         0.765737
 H        -0.797278        -0.377410         0.161342
 H        -0.408641         1.109050        -0.747287
 H        -0.280257        -0.652422        -1.437062
 H         1.649740         1.996162         1.142600
 H         1.554273         0.584546         2.211383
 H         4.266532         0.980601         0.575712
 H         3.762344        -1.895325         1.056298
 H         4.142176        -1.194240        -1.573426
 H         2.642218        -1.997374        -1.526469
 H         3.132241         1.722743        -2.155707
