19
Iteration:   317charge 0 multiplicity 1
 C        -0.146227         0.233800        -0.235243
 C         1.296089        -0.075466         0.163599
 C         2.036331         0.957776         1.130389
 C         3.312739         0.406521         0.482349
 C         3.142216        -1.134859         0.485104
 C         3.117211        -1.228614        -1.139669
 C         2.494277         0.209978        -0.903758
 O         2.500413         1.393118        -1.783242
 O         1.679465        -1.359174         0.694196
 H        -0.849293         0.216539         0.606031
 H        -0.135248         1.267464        -0.618529
 H        -0.594298        -0.370455        -0.976194
 H         1.916170         1.900688         0.638166
 H         1.781677         0.880063         2.215358
 H         4.154413         0.947427         0.662019
 H         3.718447        -1.936564         1.017779
 H         4.127670        -1.337933        -1.729805
 H         2.402516        -2.089011        -1.371049
 H         2.101464         1.084288        -2.612104
