19
Iteration:  2224charge 0 multiplicity 1
 C        -0.279862        -0.065109        -0.152762
 C         1.244001        -0.004455         0.139959
 C         1.948582         0.958241         1.135192
 C         3.236976         0.420615         0.588394
 C         3.156255        -1.164091         0.371873
 C         3.327532        -1.062284        -1.129499
 C         2.528613         0.296028        -0.867135
 O         2.532601         1.337408        -1.845581
 O         1.640662        -1.250992         0.604684
 H        -0.740088        -0.439639         0.919438
 H        -0.662061         0.904749        -0.540671
 H        -0.452621        -0.900356        -0.725520
 H         2.081194         2.041096         0.978975
 H         1.779935         0.857541         2.233264
 H         4.234731         0.830816         0.873396
 H         3.749775        -1.843779         0.989733
 H         4.460059        -0.744832        -1.267087
 H         3.003380        -1.976612        -1.749014
 H         2.353038         0.883734        -2.700799
