19
Iteration:  3157charge 0 multiplicity 1
 C         0.018208         0.110814        -0.295572
 C         1.348483         0.022170         0.265647
 C         2.044715         0.958416         1.236498
 C         3.331622         0.423722         0.538658
 C         3.128380        -1.161668         0.371199
 C         3.070160        -1.039977        -1.126348
 C         2.471299         0.297609        -0.821104
 O         2.304703         1.118856        -1.909073
 O         1.718655        -1.306612         0.650957
 H        -0.724015        -0.018443         0.499314
 H        -0.226459         1.040706        -0.754595
 H        -0.081512        -0.845034        -0.947317
 H         1.958163         1.938531         0.853293
 H         1.826114         0.910160         2.247020
 H         4.345424         0.737884         0.437439
 H         3.799232        -1.837977         0.964105
 H         3.971769        -0.929591        -1.737117
 H         2.437151        -1.744855        -1.634403
 H         1.892819         1.947162        -1.631220
