19
Iteration:  1749
 C        -0.168471        -0.088826        -0.242893
 C         1.285406         0.047143         0.085585
 C         1.966888         0.926498         1.220059
 C         3.273607         0.384862         0.627466
 C         3.123568        -1.125274         0.528360
 C         3.253523        -0.951492        -1.079686
 C         2.544467         0.338653        -0.850739
 O         2.452977         1.225262        -1.941564
 O         1.640583        -1.253440         0.533811
 H        -0.784313        -0.428002         0.688821
 H        -0.745380         0.736890        -0.619298
 H        -0.441747        -1.110641        -0.805880
 H         1.962508         1.994694         1.132183
 H         1.686306         0.503113         2.263123
 H         4.230555         0.844488         0.807307
 H         3.457796        -1.899204         1.245104
 H         4.222442        -0.790807        -1.474152
 H         2.772266        -1.698602        -1.723119
 H         3.319198         1.461139        -2.262415
