19
Iteration:   956
 C        -0.150470         0.083737        -0.204219
 C         1.264323        -0.026483         0.074091
 C         1.889318         0.905557         1.064031
 C         3.234137         0.421152         0.502350
 C         3.124497        -1.118730         0.451402
 C         3.255746        -1.069268        -1.083414
 C         2.528499         0.268940        -0.867231
 O         2.575819         1.257094        -1.775770
 O         1.688531        -1.355832         0.687227
 H        -0.696390        -0.564310         0.477035
 H        -0.478739         1.218269        -0.387772
 H        -0.500880        -0.348309        -1.186992
 H         1.785872         1.959637         0.717858
 H         1.592660         0.998442         2.141515
 H         4.193051         0.965816         0.399428
 H         3.695148        -1.848800         1.010122
 H         4.288597        -0.807103        -1.279471
 H         2.924606        -1.780135        -1.729627
 H         1.748795         1.733913        -1.793097
