19
Iteration:  3661
 C        -0.082775         0.080136        -0.177510
 C         1.361234         0.051623         0.104369
 C         2.033404         0.984555         1.093854
 C         3.354644         0.509375         0.490299
 C         3.172236        -1.174331         0.416903
 C         3.242975        -1.093704        -1.099217
 C         2.584115         0.253228        -0.868726
 O         2.256884         1.221018        -1.896494
 O         1.640276        -1.349549         0.731171
 H        -0.657981        -0.257839         0.756943
 H        -0.567350         1.082596        -0.557409
 H        -0.425615        -0.655172        -0.997211
 H         1.702322         2.021453         1.047194
 H         1.886328         0.669125         2.190239
 H         4.366557         0.997574         0.670848
 H         3.680113        -1.970638         0.949429
 H         4.270392        -0.989413        -1.373726
 H         2.641631        -1.885115        -1.576641
 H         1.291090         1.248277        -1.795524
