19
Iteration:  4170charge 0 multiplicity 1
 C        -0.229734        -0.014948        -0.190078
 C         1.348817         0.005463         0.168694
 C         2.039748         0.958854         1.087827
 C         3.269320         0.484651         0.494785
 C         3.176819        -1.164161         0.446139
 C         3.153932        -1.139400        -1.150400
 C         2.541411         0.243232        -0.898507
 O         2.287342         1.366621        -1.831329
 O         1.783904        -1.298180         0.734876
 H        -0.765043        -0.059892         0.688759
 H        -0.496935         0.938558        -0.622303
 H        -0.495035        -0.919953        -0.716607
 H         1.743761         1.984382         0.773938
 H         1.835456         0.741599         2.189573
 H         4.298714         0.808401         0.617990
 H         3.798151        -1.753728         1.053834
 H         4.218336        -1.135766        -1.602496
 H         2.579141        -1.807904        -1.765367
 H         3.063181         1.164945        -2.378394
