19
Iteration:  1488charge 0 multiplicity 1
 C        -0.122937         0.064171        -0.402484
 C         1.347618        -0.048486         0.159979
 C         1.988848         1.059246         1.110772
 C         3.262793         0.420821         0.572319
 C         3.151650        -1.163401         0.535973
 C         3.321060        -1.066925        -1.112557
 C         2.574933         0.220555        -0.858448
 O         2.224293         1.279910        -1.701660
 O         1.640700        -1.360780         0.605863
 H        -0.855469        -0.194237         0.459540
 H        -0.259427         1.049156        -0.753377
 H        -0.212565        -0.666232        -1.156014
 H         1.893646         1.991013         0.543304
 H         1.597648         1.158445         2.131980
 H         4.302399         0.831884         0.679149
 H         3.571984        -1.957439         1.150278
 H         4.473839        -0.789663        -1.292341
 H         2.937644        -1.909655        -1.767259
 H         2.938897         1.479380        -2.327888
