19
Iteration:   792
 C        -0.084472        -0.009523        -0.211927
 C         1.308124         0.065320         0.160493
 C         1.937191         0.938990         1.170554
 C         3.244854         0.420176         0.566458
 C         3.099658        -1.163980         0.446790
 C         3.122352        -1.067300        -1.123069
 C         2.483028         0.300798        -0.885785
 O         2.530908         1.153372        -1.906085
 O         1.731559        -1.258818         0.646159
 H        -0.813518        -0.426695         0.477656
 H        -0.294849         1.063667        -0.460244
 H        -0.323402        -0.483757        -1.191771
 H         1.925493         2.107556         1.008064
 H         1.548099         0.686466         2.238080
 H         4.166819         1.009083         0.667929
 H         3.638463        -1.852789         1.094590
 H         4.138874        -0.919712        -1.636511
 H         2.510691        -1.881432        -1.701235
 H         2.506752         2.098249        -1.629561
