19
Iteration:  2980charge 0 multiplicity 1
 C        -0.027034         0.026621        -0.376954
 C         1.336932        -0.073688         0.228581
 C         2.079587         0.916091         1.192462
 C         3.319528         0.466665         0.483277
 C         3.127373        -1.157131         0.399538
 C         3.130265        -1.107994        -1.130938
 C         2.574362         0.290643        -0.880789
 O         2.247301         1.292498        -1.865124
 O         1.706971        -1.279198         0.784507
 H        -0.766737        -0.099368         0.296139
 H        -0.211228         1.008592        -0.785964
 H        -0.252263        -0.639291        -1.328294
 H         1.694375         1.905035         0.888570
 H         1.919429         0.824384         2.261382
 H         4.391637         0.808303         0.744636
 H         3.633771        -1.884890         1.045957
 H         4.138979        -1.032565        -1.500022
 H         2.529397        -1.808185        -1.747396
 H         1.690940         1.902670        -1.371667
