19
Iteration:  2906
 C        -0.273336         0.062496        -0.020022
 C         1.292629        -0.084428         0.099935
 C         1.859188         0.908966         1.089071
 C         3.219437         0.428836         0.481953
 C         3.207357        -1.095075         0.415843
 C         3.257002        -1.077315        -1.195402
 C         2.519008         0.218582        -0.909239
 O         2.550970         1.292704        -1.909404
 O         1.736382        -1.338084         0.686035
 H        -0.656713        -0.156160         1.048972
 H        -0.499096         1.058711        -0.206297
 H        -0.932332        -0.312344        -0.798263
 H         1.676848         1.989978         0.882795
 H         1.942942         0.819734         2.214024
 H         4.095988         0.960500         0.765679
 H         3.894160        -1.732524         0.954572
 H         4.239073        -0.899107        -1.483165
 H         2.875595        -1.945828        -1.727266
 H         2.322861         2.122974        -1.441374
