19
Iteration:  1155
 C        -0.116882         0.111753        -0.358914
 C         1.298190        -0.018249         0.056418
 C         1.889384         0.956329         1.081792
 C         3.340232         0.432891         0.594932
 C         3.185177        -1.118182         0.532897
 C         3.236131        -1.050541        -1.067051
 C         2.506837         0.236451        -0.856692
 O         2.344804         1.249129        -1.741118
 O         1.724612        -1.367891         0.654045
 H        -0.828366        -0.286038         0.406224
 H        -0.576350         1.216260        -0.382366
 H        -0.438946        -0.464955        -1.260956
 H         1.784407         1.964935         0.829978
 H         1.489161         0.727544         2.085052
 H         4.212291         0.973673         0.665978
 H         3.770595        -1.899996         1.065243
 H         4.209880        -0.797501        -1.478449
 H         2.722428        -1.760271        -1.655727
 H         3.001848         1.152233        -2.481906
