19
Iteration:  4652
 C        -0.091314         0.123931        -0.228194
 C         1.332847        -0.050370         0.173034
 C         1.909382         1.000251         1.093228
 C         3.304667         0.418921         0.486116
 C         3.180690        -1.145506         0.385346
 C         3.203395        -1.111195        -1.139821
 C         2.546183         0.221970        -0.894578
 O         2.286510         1.276751        -1.773988
 O         1.797311        -1.259687         0.753329
 H        -0.716050        -0.058305         0.606779
 H        -0.342555         1.011198        -0.710890
 H        -0.405149        -0.645565        -1.036639
 H         1.745026         2.047384         0.647616
 H         1.921708         0.910798         2.189968
 H         4.315213         0.657281         0.749737
 H         3.719322        -1.986441         0.879354
 H         4.215171        -1.156471        -1.492271
 H         2.666699        -2.018270        -1.576333
 H         1.441467         1.009897        -2.228527
