19
Iteration:  2145charge 0 multiplicity 1
 C        -0.035700         0.125151        -0.396602
 C         1.359045        -0.072484         0.112341
 C         1.985772         0.944016         1.104519
 C         3.283102         0.458930         0.515230
 C         3.124702        -1.189214         0.455088
 C         3.262625        -1.070140        -1.040227
 C         2.526175         0.180457        -0.872886
 O         2.168971         1.263640        -1.716100
 O         1.686286        -1.320367         0.706973
 H        -0.683540         0.051018         0.503283
 H        -0.060093         1.233791        -0.888519
 H        -0.302546        -0.627991        -1.209210
 H         1.836051         1.896152         0.536336
 H         2.031262         0.953358         2.155815
 H         4.306415         0.949677         0.599815
 H         3.774440        -1.925867         0.814218
 H         4.350040        -0.817432        -1.356260
 H         2.823269        -1.885176        -1.708083
 H         2.685232         2.083918        -1.629426
