19
Iteration:   904charge 0 multiplicity 1
 C        -0.178512        -0.036751        -0.336801
 C         1.301010         0.042060         0.085689
 C         2.026932         0.975838         1.233539
 C         3.268652         0.405724         0.487003
 C         3.085915        -1.170536         0.448389
 C         3.236063        -1.043358        -1.041989
 C         2.463144         0.294719        -0.845196
 O         2.521537         1.264078        -1.790757
 O         1.688360        -1.258318         0.619801
 H        -0.805801         0.055505         0.518400
 H        -0.330666         0.886333        -0.999836
 H        -0.482380        -0.961614        -0.770069
 H         1.792921         2.060527         1.323572
 H         1.937944         0.338022         2.251508
 H         4.236335         0.708666         0.505187
 H         3.594104        -1.818431         1.191454
 H         4.221825        -0.699312        -1.444510
 H         2.850008        -1.947465        -1.712361
 H         1.721735         1.213180        -2.301816
