19
Iteration:  2802charge 0 multiplicity 1
 C        -0.118236         0.112045        -0.350108
 C         1.283696        -0.083391         0.270673
 C         2.048968         0.968865         1.139839
 C         3.297954         0.492668         0.453961
 C         3.170108        -1.207273         0.442188
 C         3.202239        -1.143003        -1.128074
 C         2.533555         0.266041        -0.888083
 O         2.242410         1.313022        -1.833529
 O         1.730108        -1.393712         0.719560
 H        -0.892481        -0.136121         0.173681
 H        -0.267798         1.223767        -0.671150
 H        -0.130839        -0.576700        -1.181497
 H         1.908147         2.018757         0.779725
 H         2.016616         0.875998         2.235382
 H         4.300918         0.896671         0.704636
 H         3.897643        -1.571880         1.139650
 H         4.260169        -0.915036        -1.487914
 H         2.740077        -1.982109        -1.627883
 H         2.108654         2.110069        -1.332397
