19
Iteration:  2499charge 0 multiplicity 1
 C        -0.109950        -0.061526        -0.433691
 C         1.334671        -0.000521         0.181871
 C         2.092082         1.060588         1.215243
 C         3.302474         0.496760         0.544413
 C         3.094354        -1.215080         0.446185
 C         3.260074        -1.015218        -1.164980
 C         2.587373         0.277348        -0.780794
 O         2.276445         1.315143        -1.768403
 O         1.650906        -1.363909         0.676086
 H        -0.839073        -0.235008         0.487250
 H        -0.148888         0.845547        -0.859509
 H        -0.326592        -0.824751        -1.185769
 H         1.848392         2.013832         0.768833
 H         1.874003         0.986946         2.266866
 H         4.323114         0.819998         0.596940
 H         3.719666        -1.766064         1.108291
 H         4.328946        -1.061222        -1.587713
 H         2.610306        -1.833697        -1.759918
 H         1.566632         0.865747        -2.255251
