19
Iteration:   712charge 0 multiplicity 1
 C        -0.148335         0.122869        -0.276755
 C         1.297375         0.000374         0.139393
 C         2.053536         0.926505         1.168522
 C         3.300202         0.399447         0.605707
 C         3.112515        -1.185393         0.486165
 C         3.149599        -1.073932        -1.160399
 C         2.590810         0.251411        -0.841132
 O         2.334715         1.169262        -1.867467
 O         1.694126        -1.245522         0.632224
 H        -0.864982         0.258419         0.663478
 H        -0.331278         1.040197        -0.851515
 H        -0.465998        -0.797078        -0.851565
 H         1.879348         1.999939         0.764159
 H         1.994161         0.841575         2.269652
 H         4.335156         0.817268         0.780108
 H         3.625202        -1.993645         1.034636
 H         4.155371        -0.940399        -1.620734
 H         2.579217        -1.763381        -1.760819
 H         2.886621         1.989218        -1.928210
