19
Iteration:  3091
 C        -0.207201         0.064237        -0.148139
 C         1.286837         0.001223         0.171206
 C         2.008925         1.007558         1.190408
 C         3.278677         0.431703         0.469559
 C         3.174017        -1.123801         0.375582
 C         3.174880        -1.119724        -1.135024
 C         2.480010         0.226158        -0.855989
 O         2.394601         1.226928        -1.856087
 O         1.757972        -1.320062         0.655737
 H        -0.759224        -0.227963         0.677935
 H        -0.470198         1.067176        -0.336186
 H        -0.497590        -0.529444        -1.059736
 H         1.721304         1.930872         0.728095
 H         1.821323         0.955388         2.232913
 H         4.192142         0.996982         0.408552
 H         3.786615        -1.841776         0.921521
 H         4.113573        -1.040123        -1.630564
 H         2.623774        -1.935823        -1.576632
 H         3.198357         1.795672        -1.778310
