19
Iteration:  3810
 C         0.003440         0.189292        -0.282713
 C         1.304379        -0.027981         0.191325
 C         2.038132         0.972493         1.184956
 C         3.363812         0.522686         0.453960
 C         3.257445        -1.124263         0.440311
 C         3.147013        -1.138620        -1.141071
 C         2.491929         0.215272        -0.829348
 O         2.116907         1.094264        -1.805682
 O         1.719938        -1.329454         0.654574
 H        -0.670334         0.089313         0.528461
 H        -0.247817         1.214506        -0.629717
 H        -0.431679        -0.514052        -1.158316
 H         1.759465         2.012409         0.875103
 H         1.967057         0.793949         2.243508
 H         4.287098         1.133671         0.592723
 H         3.929743        -1.688537         1.092070
 H         4.125954        -1.009376        -1.759642
 H         2.327566        -1.806139        -1.485018
 H         2.809015         1.752033        -1.895227
