19
Iteration:  4884charge 0 multiplicity 1
 C        -0.203310        -0.032322         0.006751
 C         1.318067         0.016730         0.167460
 C         1.962501         0.993918         1.178330
 C         3.253158         0.452132         0.502569
 C         3.192948        -1.096120         0.391579
 C         3.142423        -1.063009        -1.084577
 C         2.447985         0.269552        -0.968967
 O         2.496861         1.126166        -1.985630
 O         1.769029        -1.257234         0.644553
 H        -0.731728        -0.309501         0.904202
 H        -0.678760         0.847738        -0.470541
 H        -0.442963        -0.858026        -0.697615
 H         1.690076         1.932288         0.658367
 H         1.667707         1.028635         2.263585
 H         4.247527         1.002443         0.724487
 H         3.828734        -1.815434         0.907432
 H         4.084664        -0.971123        -1.707787
 H         2.531195        -1.695770        -1.683995
 H         2.716460         1.973997        -1.572711
