19
Iteration:  2490charge 0 multiplicity 1
 C        -0.044111        -0.012247        -0.424755
 C         1.297207        -0.047471         0.121221
 C         2.079822         1.037296         1.137783
 C         3.368942         0.481399         0.575461
 C         3.118912        -1.173965         0.444636
 C         3.243102        -1.093344        -1.091848
 C         2.572411         0.308984        -0.799432
 O         2.207296         1.306895        -1.709396
 O         1.648739        -1.342460         0.648299
 H        -0.846668        -0.221726         0.488816
 H        -0.425574         0.884820        -0.786764
 H        -0.128568        -0.876579        -1.177853
 H         1.967034         2.085256         0.787321
 H         1.944547         1.043520         2.202238
 H         4.416614         0.835160         0.694957
 H         3.655088        -1.918408         0.963669
 H         4.279883        -0.846364        -1.369832
 H         2.736968        -1.850971        -1.801420
 H         1.593050         0.963974        -2.378268
