19
Iteration:  4482
 C        -0.075642        -0.002652        -0.298012
 C         1.322487         0.020469         0.249468
 C         2.098474         0.953215         1.218023
 C         3.316029         0.472268         0.403570
 C         3.185236        -1.168900         0.408794
 C         3.139625        -1.041147        -1.090821
 C         2.449091         0.257051        -0.783766
 O         2.333287         1.269388        -1.854325
 O         1.676284        -1.273721         0.698004
 H        -0.820544        -0.352099         0.473601
 H        -0.331303         0.934363        -0.775940
 H        -0.018864        -0.783911        -1.063034
 H         1.984307         1.989068         0.874718
 H         1.962748         0.829375         2.275030
 H         4.356342         0.815801         0.479007
 H         3.803097        -1.823397         0.903565
 H         4.110136        -1.132334        -1.597947
 H         2.535209        -1.735375        -1.720766
 H         1.569073         0.984759        -2.432058
