19
Iteration:  1498charge 0 multiplicity 1
 C        -0.037484         0.041615        -0.407963
 C         1.291643        -0.024373         0.071549
 C         1.975202         0.962570         1.054744
 C         3.312465         0.435239         0.544316
 C         3.083757        -1.105753         0.514614
 C         3.255879        -1.089667        -1.044984
 C         2.510102         0.198231        -0.832219
 O         2.241701         1.258146        -1.648318
 O         1.722569        -1.300938         0.630014
 H        -0.872720        -0.157224         0.311758
 H        -0.178653         1.010018        -0.677238
 H        -0.356165        -0.476444        -1.309993
 H         1.731313         2.012483         0.810889
 H         1.854557         0.826480         2.138407
 H         4.264129         1.016220         0.771227
 H         3.722178        -1.762654         1.110438
 H         4.401431        -0.923814        -1.394674
 H         2.796039        -1.780570        -1.838403
 H         3.028335         1.435437        -2.228033
