19
Iteration:  3778
 C        -0.077048         0.123902        -0.274668
 C         1.345188         0.041253         0.213151
 C         2.083641         0.936930         1.220130
 C         3.324857         0.364262         0.421467
 C         3.144984        -1.121399         0.418560
 C         3.259016        -1.092133        -1.165401
 C         2.459612         0.278755        -0.880909
 O         2.105610         1.207656        -1.867675
 O         1.706225        -1.299505         0.789617
 H        -0.614328        -0.070111         0.560254
 H        -0.337449         1.018977        -0.881926
 H        -0.220231        -0.709076        -1.112796
 H         2.016882         2.041413         0.969056
 H         1.977639         0.875638         2.360341
 H         4.277821         0.850643         0.682153
 H         3.923404        -1.668774         0.931884
 H         4.442728        -1.023631        -1.354187
 H         2.652279        -1.939155        -1.687963
 H         2.919587         1.247745        -2.446829
