19
Iteration:  3416charge 0 multiplicity 1
 C        -0.187724        -0.046195        -0.067817
 C         1.257776         0.057321         0.223026
 C         2.076885         0.996608         1.196985
 C         3.232060         0.395970         0.398869
 C         3.127239        -1.080347         0.449461
 C         3.216914        -1.064611        -1.031799
 C         2.483326         0.234373        -0.942222
 O         2.497181         1.287390        -1.846775
 O         1.686786        -1.323962         0.524694
 H        -0.992246        -0.351917         0.644323
 H        -0.445766         0.955128        -0.325816
 H        -0.164353        -0.743329        -1.052036
 H         1.826522         2.118773         0.946217
 H         2.125959         0.776878         2.310975
 H         4.220480         0.795997         0.425156
 H         3.764741        -1.650329         1.127782
 H         4.251215        -0.922107        -1.419471
 H         2.706661        -1.951907        -1.456359
 H         1.815403         1.177257        -2.574360
