19
Iteration:  4859
 C        -0.232348        -0.051197         0.019386
 C         1.297005        -0.015846         0.157580
 C         2.075332         0.988018         1.091003
 C         3.331287         0.536325         0.441869
 C         3.059447        -1.152760         0.500990
 C         3.359762        -1.112529        -1.131925
 C         2.505833         0.250096        -0.984509
 O         2.418155         1.219385        -1.975773
 O         1.649138        -1.259655         0.685445
 H        -0.749561        -0.253890         0.962909
 H        -0.610177         0.887145        -0.360430
 H        -0.633819        -0.944815        -0.651906
 H         1.812820         2.006743         0.906655
 H         1.827515         0.761495         2.080183
 H         4.301489         0.981739         0.744835
 H         3.454900        -1.963336         1.102441
 H         4.273435        -0.815199        -1.564354
 H         2.972530        -1.820053        -1.930006
 H         2.049316         2.031160        -1.593723
