19
Iteration:  1670
 C        -0.029061         0.000130        -0.399795
 C         1.314042         0.017155         0.113846
 C         1.955057         0.915441         1.274516
 C         3.286103         0.478983         0.552172
 C         3.119163        -1.153810         0.476062
 C         3.274827        -1.069052        -1.124761
 C         2.598126         0.308239        -0.830209
 O         2.225536         1.212347        -1.789456
 O         1.644446        -1.258074         0.630244
 H        -0.850768        -0.282438         0.137940
 H        -0.363505         0.862130        -0.901010
 H         0.010577        -0.690219        -1.386867
 H         1.793721         2.042477         1.155660
 H         1.910448         0.630506         2.341176
 H         4.343692         0.909980         0.689617
 H         3.591411        -1.843692         1.172608
 H         4.277580        -1.099890        -1.517427
 H         2.619090        -1.817270        -1.593438
 H         3.045168         1.590911        -2.094891
