19
Iteration:  4857
 C        -0.227932        -0.043093         0.016042
 C         1.309411        -0.023101         0.150768
 C         2.074729         0.973868         1.093821
 C         3.342123         0.530510         0.443748
 C         3.066116        -1.158033         0.494427
 C         3.360343        -1.108352        -1.121274
 C         2.497498         0.239362        -1.006663
 O         2.414020         1.223587        -1.975055
 O         1.643003        -1.244202         0.688122
 H        -0.843405        -0.265257         0.942945
 H        -0.602903         0.925497        -0.353468
 H        -0.584396        -0.929118        -0.613714
 H         1.730974         1.991926         0.891579
 H         1.865021         0.822048         2.147533
 H         4.238136         0.994939         0.757682
 H         3.488027        -1.966576         1.134873
 H         4.307133        -0.818014        -1.536251
 H         2.971606        -1.803209        -1.936418
 H         1.981818         1.975509        -1.511729
