19
Iteration:  1501
 C        -0.038290         0.034708        -0.426029
 C         1.292018        -0.029131         0.051814
 C         1.957922         0.936105         1.051127
 C         3.309418         0.452554         0.537154
 C         3.080662        -1.111369         0.489373
 C         3.238928        -1.097911        -1.037943
 C         2.510522         0.211520        -0.820280
 O         2.248426         1.257219        -1.649057
 O         1.744644        -1.280221         0.652499
 H        -0.874950        -0.156118         0.383501
 H        -0.221058         1.159141        -0.686845
 H        -0.243794        -0.437094        -1.307750
 H         1.754495         1.965904         0.882055
 H         1.897841         0.670277         2.152107
 H         4.218283         0.943897         0.722211
 H         3.755337        -1.682812         1.118794
 H         4.326840        -0.925673        -1.378368
 H         2.743200        -1.818235        -1.703504
 H         3.058303         1.421343        -2.179520
