19
Iteration:  2299
 C        -0.084537        -0.082075        -0.388322
 C         1.345828         0.042479         0.159291
 C         2.077567         0.951933         1.222130
 C         3.280358         0.425588         0.573930
 C         3.092370        -1.136309         0.424585
 C         3.251738        -1.006686        -1.133061
 C         2.530397         0.325415        -0.822188
 O         2.352241         1.234180        -1.802717
 O         1.613167        -1.282862         0.660218
 H        -0.798536        -0.323703         0.509686
 H        -0.492471         0.977912        -0.724812
 H        -0.068610        -0.721383        -1.242630
 H         1.952141         2.027841         1.155002
 H         1.753176         0.722074         2.224277
 H         4.326459         0.808276         0.636352
 H         3.678689        -1.882403         0.944327
 H         4.307946        -0.704038        -1.458442
 H         2.961037        -1.917995        -1.708576
 H         1.535227         1.085641        -2.293675
