19
Iteration:   472
 C        -0.162283         0.090147        -0.196310
 C         1.295564         0.126624         0.163328
 C         1.994581         0.966349         1.246613
 C         3.350725         0.351174         0.565526
 C         3.099333        -1.275556         0.361495
 C         3.100196        -1.097871        -1.123267
 C         2.558195         0.292319        -0.847682
 O         2.486219         1.235094        -1.902435
 O         1.664744        -1.212660         0.657704
 H        -0.782653         0.098286         0.710047
 H        -0.360633         1.011997        -0.637573
 H        -0.344841        -0.708981        -0.874507
 H         1.959368         2.089210         1.149056
 H         1.870769         0.714478         2.324687
 H         4.257821         0.863568         0.687110
 H         3.718846        -2.027672         0.800289
 H         4.096639        -1.054720        -1.819852
 H         2.390548        -1.956685        -1.521306
 H         2.471118         0.714173        -2.742522
