19
Iteration:  1087charge 0 multiplicity 1
 C        -0.219860        -0.006686        -0.254105
 C         1.256333        -0.035891         0.095135
 C         1.917326         0.958845         1.085268
 C         3.302120         0.398652         0.647556
 C         3.143318        -1.175108         0.461986
 C         3.210337        -1.029020        -1.086976
 C         2.599829         0.255299        -0.857682
 O         2.445982         1.308225        -1.896599
 O         1.716538        -1.315774         0.657536
 H        -0.853478         0.189670         0.611571
 H        -0.349700         0.928752        -0.980313
 H        -0.606647        -0.947706        -0.656743
 H         1.841002         1.951698         0.673085
 H         1.504927         0.817677         2.055653
 H         4.369607         0.739255         0.776531
 H         3.723087        -1.902652         1.057005
 H         4.283529        -0.874870        -1.387924
 H         2.708247        -1.804332        -1.667891
 H         2.793606         2.159921        -1.559872
