19
Iteration:  4154charge 0 multiplicity 1
 C        -0.071339        -0.045165        -0.258201
 C         1.282070         0.020074         0.155572
 C         2.045818         1.044716         1.193551
 C         3.357029         0.391762         0.449178
 C         3.148721        -1.106959         0.379010
 C         3.148113        -1.107950        -1.112072
 C         2.480246         0.258304        -0.873696
 O         2.243090         1.228224        -1.699637
 O         1.740943        -1.231549         0.650596
 H        -0.805680        -0.195924         0.656473
 H        -0.421721         0.816207        -0.881938
 H        -0.232827        -0.915831        -0.958329
 H         2.112471         2.140142         1.009333
 H         1.900158         1.005650         2.250107
 H         4.321211         0.956860         0.418468
 H         3.736194        -1.904391         0.956560
 H         4.074577        -0.979426        -1.628624
 H         2.682058        -2.079867        -1.488637
 H         2.721085         1.290090        -2.547752
