19
Iteration:  1143charge 0 multiplicity 1
 C        -0.205281         0.068196        -0.333794
 C         1.323695        -0.054814         0.030151
 C         1.964910         0.847741         1.169161
 C         3.178491         0.434777         0.539369
 C         3.163575        -1.101979         0.490776
 C         3.258623        -1.071312        -1.016478
 C         2.569531         0.260692        -0.872992
 O         2.365818         1.325108        -1.848203
 O         1.697152        -1.301713         0.696710
 H        -0.569346        -0.306688         0.602144
 H        -0.282166         1.255050        -0.596888
 H        -0.485179        -0.486412        -1.242969
 H         1.843381         1.863595         0.960020
 H         1.785361         0.631373         2.224828
 H         4.148138         0.797919         0.718196
 H         3.800370        -1.711427         1.189237
 H         4.307278        -0.953089        -1.402031
 H         2.776279        -1.888869        -1.510517
 H         3.144277         1.359722        -2.398191
