19
Iteration:  3328charge 0 multiplicity 1
 C        -0.082972         0.055021        -0.274755
 C         1.368918         0.028518         0.146649
 C         2.094658         0.925831         1.194527
 C         3.327850         0.410895         0.477507
 C         3.119120        -1.174236         0.409657
 C         3.222088        -1.112228        -1.166701
 C         2.486574         0.226560        -0.909493
 O         2.176475         1.218810        -1.810005
 O         1.688817        -1.229973         0.738803
 H        -0.706548         0.129736         0.614905
 H        -0.299443         0.965643        -0.787551
 H        -0.411279        -0.734126        -1.039384
 H         1.861258         2.055932         0.929156
 H         1.938858         0.867517         2.338960
 H         4.389311         0.667600         0.522140
 H         3.556710        -1.787096         1.157856
 H         4.270234        -0.889825        -1.438372
 H         2.929750        -1.930288        -1.888322
 H         2.708791         2.037968        -1.605240
