19
Iteration:  2964
 C        -0.139586        -0.024898        -0.399914
 C         1.295867         0.096399         0.199287
 C         2.100080         0.983150         1.221665
 C         3.357968         0.353566         0.491581
 C         3.146350        -1.181952         0.421421
 C         3.159751        -1.015583        -1.131020
 C         2.470576         0.300542        -0.813940
 O         2.269245         1.185236        -1.845827
 O         1.723511        -1.271463         0.713199
 H        -1.012830        -0.529424         0.236713
 H        -0.395287         1.006115        -0.820846
 H         0.009554        -0.768123        -1.095197
 H         2.249262         2.045272         1.209330
 H         2.005403         0.651903         2.267630
 H         4.309839         0.814962         0.450273
 H         3.851062        -1.894574         0.841336
 H         4.237333        -0.820401        -1.449956
 H         2.625382        -1.830614        -1.637964
 H         2.065203         2.101777        -1.553021
