19
Iteration:   410charge 0 multiplicity 1
 C        -0.145164         0.246240        -0.213343
 C         1.287574        -0.001908         0.077346
 C         1.940056         0.960208         1.044755
 C         3.274838         0.364414         0.486694
 C         3.175346        -1.167251         0.464733
 C         3.152816        -1.125704        -1.187583
 C         2.546945         0.222066        -0.851881
 O         2.508037         1.231354        -1.700313
 O         1.718992        -1.325830         0.738830
 H        -0.761928         0.056385         0.735028
 H        -0.155505         1.378467        -0.308593
 H        -0.725756        -0.187656        -1.150872
 H         1.783672         1.938081         0.526881
 H         1.596262         0.767212         2.053916
 H         4.376333         0.722358         0.321239
 H         3.695440        -1.865084         1.107343
 H         4.019164        -1.032149        -1.721184
 H         2.568378        -1.908496        -1.539726
 H         1.719991         1.195505        -2.286200
