19
Iteration:  1802charge 0 multiplicity 1
 C        -0.146732         0.135525        -0.400138
 C         1.340984        -0.044797         0.055918
 C         1.950512         0.891886         1.050863
 C         3.254872         0.437417         0.519370
 C         3.132712        -1.071415         0.452716
 C         3.274250        -1.118489        -1.014850
 C         2.502288         0.209875        -0.846529
 O         2.281850         1.331830        -1.635377
 O         1.772198        -1.358340         0.671951
 H        -0.794445         0.127280         0.371284
 H        -0.209466         1.029341        -0.824772
 H        -0.492304        -0.755499        -1.079751
 H         1.684467         1.895732         0.741174
 H         1.598693         0.801114         2.117652
 H         4.289983         0.799420         0.633549
 H         3.727750        -1.719944         1.073195
 H         4.403943        -0.950712        -1.415450
 H         2.785323        -2.052285        -1.525677
 H         2.956611         1.503202        -2.282384
