19
Iteration:  2885
 C        -0.247809         0.057178        -0.004875
 C         1.262765         0.023871         0.182349
 C         1.944272         0.932353         1.120347
 C         3.248009         0.462913         0.439859
 C         3.110915        -1.187600         0.414081
 C         3.326183        -1.009174        -1.121015
 C         2.474673         0.219532        -0.890552
 O         2.550533         1.214783        -1.851444
 O         1.732811        -1.335610         0.536270
 H        -0.765620        -0.255162         1.098661
 H        -0.696173         0.991067        -0.426958
 H        -0.556143        -0.720487        -0.695033
 H         1.583271         1.904556         0.787199
 H         1.768448         1.002072         2.235167
 H         4.163153         0.911357         0.226812
 H         3.767583        -1.748096         1.039464
 H         4.321907        -0.727736        -1.455179
 H         2.984403        -1.860104        -1.741855
 H         2.002638         1.973430        -1.523078
