19
Iteration:   197
 C        -0.103172         0.203019        -0.285737
 C         1.279158        -0.061421         0.220335
 C         2.046767         1.067617         1.097051
 C         3.360511         0.465359         0.463838
 C         3.080620        -1.228844         0.439746
 C         3.138712        -1.164496        -1.079233
 C         2.562540         0.224716        -0.868854
 O         2.372174         1.226554        -1.836150
 O         1.641316        -1.350610         0.680700
 H        -0.810282        -0.045412         0.631255
 H        -0.311869         1.284517        -0.632097
 H        -0.481787        -0.494066        -1.042820
 H         1.679170         1.977012         0.623339
 H         2.068056         0.957851         2.211722
 H         4.362615         0.723806         0.568378
 H         3.586861        -2.068739         1.014731
 H         4.196600        -0.972267        -1.292449
 H         2.820747        -1.974156        -1.704763
 H         2.813948         2.051655        -1.543700
