19
Iteration:  3648charge 0 multiplicity 1
 C        -0.101067         0.128474        -0.314526
 C         1.366306        -0.081639         0.177977
 C         2.075589         0.933995         1.169819
 C         3.332077         0.584414         0.399637
 C         3.078320        -1.161814         0.517070
 C         3.230819        -1.100318        -1.141248
 C         2.602072         0.268003        -0.930643
 O         2.204100         1.193522        -1.817642
 O         1.712856        -1.313695         0.760369
 H        -0.719869        -0.068373         0.550030
 H        -0.248385         1.259167        -0.530843
 H        -0.261539        -0.687736        -1.229143
 H         1.819445         2.058081         1.024483
 H         1.935739         0.444894         2.239808
 H         4.365211         0.862892         0.539880
 H         3.768425        -1.740413         1.135288
 H         4.276116        -1.187208        -1.547239
 H         2.639846        -1.808695        -1.793051
 H         1.272015         1.469449        -1.814437
