19
Iteration:  2527charge 0 multiplicity 1
 C        -0.156891        -0.041534        -0.273185
 C         1.294210         0.018588         0.154688
 C         1.944228         0.816331         1.165628
 C         3.286442         0.497345         0.541668
 C         3.209683        -1.078577         0.370447
 C         3.138069        -1.097955        -1.113347
 C         2.406864         0.261492        -0.837826
 O         2.536127         1.333040        -1.861249
 O         1.724154        -1.288772         0.725173
 H        -0.701296        -0.080636         0.605721
 H        -0.257855         1.018808        -0.945132
 H        -0.365674        -0.908304        -0.922497
 H         1.774053         1.896343         0.979377
 H         1.645202         0.504290         2.218731
 H         4.233177         1.083177         0.655261
 H         3.911254        -1.740446         1.001801
 H         4.099995        -0.822566        -1.469326
 H         2.852774        -1.969823        -1.524059
 H         1.705066         1.339703        -2.323184
