19
Iteration:  2759charge 0 multiplicity 1
 C        -0.240249        -0.042718        -0.062073
 C         1.236956         0.084999         0.135418
 C         2.014559         0.965451         1.161272
 C         3.283431         0.449452         0.548757
 C         3.128892        -1.125584         0.396332
 C         3.284251        -1.075720        -1.139860
 C         2.566019         0.301954        -0.881389
 O         2.402196         1.237121        -1.888458
 O         1.680602        -1.345669         0.593250
 H        -0.727385        -0.399733         0.772851
 H        -0.727123         0.943899        -0.425851
 H        -0.437338        -0.694210        -0.944450
 H         1.815595         2.052385         0.928170
 H         1.771592         0.711350         2.206501
 H         4.256490         0.932417         0.787767
 H         3.686400        -1.903694         0.899538
 H         4.299235        -0.921262        -1.544726
 H         2.714648        -1.795546        -1.657628
 H         3.259479         1.650179        -2.011498
