19
Iteration:  2187
 C        -0.082717         0.035017        -0.363890
 C         1.312385        -0.041391         0.156800
 C         2.003683         0.886741         1.247315
 C         3.276095         0.499491         0.540914
 C         3.195990        -1.161205         0.424457
 C         3.143205        -1.043903        -1.067423
 C         2.522446         0.328355        -0.829152
 O         2.343183         1.285007        -1.841146
 O         1.689211        -1.323795         0.655305
 H        -0.745441         0.142174         0.441726
 H        -0.431314         0.936270        -1.033725
 H        -0.407412        -0.864525        -1.072969
 H         1.796098         1.957526         1.045171
 H         1.739232         0.588718         2.244098
 H         4.209878         1.020986         0.842294
 H         3.698067        -1.879967         1.055775
 H         4.119407        -0.964599        -1.489496
 H         2.641609        -1.868030        -1.550092
 H         2.932943         1.052055        -2.619056
