19
Iteration:   886charge 0 multiplicity 1
 C        -0.072328         0.117536        -0.340339
 C         1.270638        -0.060171         0.246095
 C         1.954331         0.876323         1.203661
 C         3.232439         0.469351         0.466123
 C         3.114432        -1.140632         0.448815
 C         3.235348        -1.080407        -1.122192
 C         2.560983         0.221631        -0.902478
 O         2.465466         1.374164        -1.809538
 O         1.641499        -1.359037         0.716040
 H        -0.868656         0.228132         0.448390
 H        -0.104622         0.838586        -1.088571
 H        -0.334624        -0.846965        -0.828695
 H         1.742144         1.878930         0.899738
 H         1.768301         0.795433         2.204642
 H         4.194377         1.087829         0.624002
 H         3.782313        -1.797762         1.052439
 H         4.318745        -0.969049        -1.295823
 H         2.766930        -1.898190        -1.707410
 H         2.001121         1.133208        -2.607895
