19
Iteration:  4914
 C        -0.183354         0.004830        -0.184331
 C         1.310554        -0.030317         0.185130
 C         1.998764         0.984049         1.227173
 C         3.236574         0.499879         0.369201
 C         3.169879        -1.087280         0.406116
 C         3.117827        -1.111087        -1.105396
 C         2.526489         0.280815        -0.950248
 O         2.419185         1.189409        -1.942078
 O         1.786974        -1.325595         0.821034
 H        -0.773522        -0.212789         0.686140
 H        -0.492429         0.934635        -0.646847
 H        -0.400754        -0.711063        -1.077455
 H         1.676685         1.978487         1.026102
 H         1.899616         0.714171         2.240177
 H         4.286034         0.896724         0.452675
 H         3.940590        -1.665244         0.892780
 H         4.091727        -1.117608        -1.558645
 H         2.340398        -1.701212        -1.630840
 H         2.542455         2.100285        -1.625944
