19
Iteration:  1768charge 0 multiplicity 1
 C        -0.151260        -0.058499        -0.263605
 C         1.251655         0.046059         0.180270
 C         1.946714         0.924264         1.288610
 C         3.214291         0.484921         0.616123
 C         3.053941        -1.137045         0.356024
 C         3.260098        -1.010834        -1.084242
 C         2.601100         0.343007        -0.843728
 O         2.456329         1.209380        -1.933791
 O         1.686363        -1.307168         0.630876
 H        -0.821708        -0.111251         0.487954
 H        -0.406246         0.733844        -0.876233
 H        -0.284835        -0.951418        -0.970159
 H         1.569330         1.910076         0.971088
 H         1.652917         0.636903         2.294697
 H         4.263817         0.845217         0.844218
 H         3.754062        -1.838618         0.741959
 H         4.367747        -0.866967        -1.482920
 H         2.664188        -1.704209        -1.774998
 H         3.361257         1.345827        -2.186915
