19
Iteration:   161charge 0 multiplicity 1
 C        -0.215345         0.115077        -0.280623
 C         1.370695         0.055429         0.096582
 C         2.055127         0.941848         1.134920
 C         3.402678         0.365080         0.575120
 C         3.075921        -1.199525         0.479791
 C         3.153845        -1.150387        -1.056558
 C         2.571957         0.251138        -0.887287
 O         2.351776         1.296723        -1.841882
 O         1.639380        -1.217549         0.662436
 H        -0.729939         0.012251         0.652856
 H        -0.628581         1.047942        -0.692465
 H        -0.481431        -0.767306        -0.912873
 H         1.981832         2.076964         1.106061
 H         1.885161         0.729652         2.192630
 H         4.502357         0.663668         0.803447
 H         3.520136        -2.021470         0.947914
 H         4.317858        -0.933784        -1.369848
 H         2.620140        -1.955569        -1.753536
 H         2.698318         0.878716        -2.651022
