19
Iteration:  3734
 C        -0.191416        -0.011214        -0.013147
 C         1.256276         0.013041         0.142937
 C         1.995249         0.984615         1.064539
 C         3.242946         0.436600         0.507702
 C         3.237969        -1.097983         0.406462
 C         3.139256        -1.188459        -1.181658
 C         2.593628         0.263723        -0.920978
 O         2.440911         1.344805        -1.856034
 O         1.694475        -1.302504         0.721082
 H        -0.530690        -0.171272         0.944957
 H        -0.718806         0.805985        -0.472517
 H        -0.522145        -0.894382        -0.689624
 H         1.951678         2.104550         0.771261
 H         1.690443         0.883656         2.148592
 H         4.246096         0.807978         0.609928
 H         3.820352        -1.653333         1.146835
 H         4.083621        -0.844053        -1.789537
 H         2.451669        -1.992234        -1.600639
 H         2.604040         1.011320        -2.784014
