19
Iteration:  2601charge 0 multiplicity 1
 C        -0.243226         0.014090        -0.146347
 C         1.268078        -0.002593         0.125782
 C         1.932718         0.940809         1.159386
 C         3.253072         0.454723         0.508966
 C         3.143763        -1.116288         0.393262
 C         3.310191        -1.086367        -1.128729
 C         2.589107         0.282171        -0.899153
 O         2.390702         1.276079        -1.784464
 O         1.704481        -1.303222         0.628313
 H        -0.669378        -0.363337         0.835863
 H        -0.532014         0.999644        -0.350616
 H        -0.377077        -0.672257        -1.010881
 H         1.817762         2.015675         0.936042
 H         1.658906         0.799770         2.217552
 H         4.273528         0.884997         0.701379
 H         3.665255        -1.851931         1.052844
 H         4.355170        -0.796106        -1.396218
 H         2.990438        -2.012816        -1.778351
 H         2.772586         1.129460        -2.672969
