19
Iteration:   153
 C        -0.224457         0.106404        -0.247361
 C         1.298349         0.070926         0.129946
 C         2.108196         0.970583         1.185283
 C         3.400592         0.443944         0.528549
 C         3.014129        -1.205252         0.417285
 C         3.147030        -1.114034        -1.035253
 C         2.573420         0.260045        -0.879761
 O         2.431837         1.290365        -1.879092
 O         1.652002        -1.316545         0.680831
 H        -0.953531        -0.047896         0.632263
 H        -0.317748         1.068020        -0.868758
 H        -0.336429        -0.728916        -0.974708
 H         1.895238         2.047206         1.058086
 H         1.830487         0.540454         2.171623
 H         4.381290         0.745265         0.821349
 H         3.666428        -1.955234         0.914513
 H         4.180759        -1.142306        -1.196255
 H         2.612581        -1.825815        -1.604086
 H         2.418835         0.868067        -2.770025
