19
Iteration:  1860charge 0 multiplicity 1
 C        -0.161590        -0.035128        -0.379818
 C         1.282603         0.041188         0.150816
 C         1.976325         0.898685         1.305376
 C         3.289216         0.487346         0.596163
 C         3.174168        -1.161339         0.428416
 C         3.192452        -1.047241        -1.114743
 C         2.523945         0.321443        -0.816937
 O         2.378526         1.211388        -1.916281
 O         1.701217        -1.278115         0.664191
 H        -0.986835        -0.291944         0.414366
 H        -0.431516         0.996364        -0.874184
 H        -0.230695        -0.682788        -1.179262
 H         1.889563         1.991336         1.125290
 H         1.710071         0.471422         2.308355
 H         4.288086         0.858994         0.642856
 H         3.677099        -1.856917         1.221604
 H         4.158951        -0.824575        -1.574625
 H         2.607247        -1.772199        -1.709505
 H         3.239264         1.652372        -2.177523
