19
Iteration:  2061charge 0 multiplicity 1
 C        -0.250486        -0.043654        -0.149901
 C         1.224206        -0.031394         0.213597
 C         1.886492         0.930043         1.138526
 C         3.246293         0.498720         0.526050
 C         3.089671        -1.151586         0.404270
 C         3.256050        -1.070577        -1.090571
 C         2.566140         0.299153        -0.908639
 O         2.635491         1.301402        -1.874933
 O         1.752908        -1.331416         0.616078
 H        -1.022906        -0.268049         0.731426
 H        -0.450941         0.990461        -0.366166
 H        -0.602858        -0.609939        -0.945760
 H         1.721535         2.020145         0.858986
 H         1.625237         0.876595         2.234202
 H         4.233011         0.967290         0.785691
 H         3.793686        -1.712195         0.974071
 H         4.299262        -0.964132        -1.394910
 H         2.695576        -1.773099        -1.712396
 H         1.813545         1.316998        -2.432129
