19
Iteration:  2060charge 0 multiplicity 1
 C        -0.250779        -0.047633        -0.150183
 C         1.225390        -0.025892         0.207808
 C         1.881650         0.927747         1.132739
 C         3.246340         0.495743         0.522755
 C         3.098039        -1.150140         0.415439
 C         3.250368        -1.067352        -1.091406
 C         2.572957         0.293385        -0.907443
 O         2.629264         1.297621        -1.870227
 O         1.748114        -1.326582         0.613041
 H        -1.019316        -0.288849         0.729702
 H        -0.422500         1.027841        -0.378293
 H        -0.577792        -0.602325        -0.902258
 H         1.722884         2.032633         0.835623
 H         1.639191         0.872510         2.228975
 H         4.256958         0.931281         0.785153
 H         3.781848        -1.725791         0.972864
 H         4.325689        -0.914958        -1.403300
 H         2.702187        -1.795919        -1.738490
 H         1.804195         1.348681        -2.380284
