19
Iteration:  1114
 C        -0.165607        -0.001009        -0.240437
 C         1.263061         0.051578         0.169057
 C         1.953269         0.984264         1.243725
 C         3.217392         0.506658         0.555062
 C         3.129588        -1.174934         0.421376
 C         3.279983        -1.027758        -1.085917
 C         2.574640         0.224287        -0.848507
 O         2.454157         1.206978        -1.893276
 O         1.620567        -1.313705         0.551673
 H        -0.866883        -0.197728         0.633320
 H        -0.448008         0.807751        -0.890765
 H        -0.208731        -1.022800        -0.708067
 H         1.698538         2.030220         0.916011
 H         1.795577         0.657396         2.315835
 H         4.248287         0.876429         0.656982
 H         3.672280        -1.853026         1.078182
 H         4.277115        -0.764429        -1.373869
 H         2.903274        -1.825925        -1.750781
 H         3.224887         1.776406        -1.795867
