19
Iteration:  1739
 C        -0.194773        -0.086536        -0.219116
 C         1.279648         0.055380         0.039199
 C         1.978639         0.929737         1.202202
 C         3.218748         0.404042         0.613842
 C         3.109637        -1.135341         0.471995
 C         3.359662        -1.034584        -1.017642
 C         2.547116         0.296871        -0.880592
 O         2.415803         1.284792        -1.888858
 O         1.646519        -1.250903         0.551951
 H        -0.575917        -0.352786         0.875431
 H        -0.709130         0.847432        -0.581340
 H        -0.372677        -0.850708        -1.043947
 H         1.793467         1.960279         1.012455
 H         1.607930         0.633328         2.238802
 H         4.193130         0.827178         0.681016
 H         3.659068        -1.931624         1.011722
 H         4.247110        -0.894470        -1.501792
 H         2.760397        -1.802633        -1.433632
 H         3.337513         1.407219        -2.198994
