19
Iteration:  1450
 C        -0.134659         0.038676        -0.223865
 C         1.277674        -0.054663         0.046681
 C         1.903551         0.863102         1.191521
 C         3.276555         0.457186         0.603396
 C         3.128094        -1.111857         0.512759
 C         3.273540        -0.991380        -1.126453
 C         2.568229         0.252277        -0.887311
 O         2.412007         1.220356        -1.850290
 O         1.642468        -1.240210         0.594461
 H        -0.675180         0.027919         0.623154
 H        -0.554716         0.813564        -0.933356
 H        -0.489656        -0.935568        -0.738960
 H         1.739272         1.962157         1.147030
 H         1.682645         0.549142         2.227011
 H         4.273711         0.873417         0.673142
 H         3.716558        -1.710966         1.209822
 H         4.260578        -0.763598        -1.465496
 H         2.935243        -1.890601        -1.645870
 H         3.244833         1.487605        -2.213642
