19
Iteration:    40
 C        -0.173218         0.151599        -0.298116
 C         1.244185         0.009883         0.206396
 C         2.060754         0.851966         1.188431
 C         3.253243         0.442287         0.563541
 C         3.083482        -1.093312         0.398105
 C         3.116666        -1.121975        -1.122526
 C         2.570940         0.267370        -0.870866
 O         2.498072         1.119142        -1.929690
 O         1.716713        -1.259923         0.720394
 H        -1.028380         0.026790         0.384478
 H        -0.266801         1.257214        -0.576724
 H        -0.257872        -0.452704        -1.291708
 H         2.004828         2.008612         1.084579
 H         1.943614         0.740508         2.275286
 H         4.326012         0.859369         0.809365
 H         3.673479        -1.822184         0.918571
 H         4.177126        -1.147689        -1.617888
 H         2.357273        -1.845889        -1.587543
 H         2.291023         2.059396        -1.637402
