19
Iteration:  3041charge 0 multiplicity 1
 C        -0.159941         0.013709        -0.059377
 C         1.299726         0.005940         0.199661
 C         1.998702         0.986254         1.186421
 C         3.209290         0.399037         0.380844
 C         3.044105        -1.196797         0.398791
 C         3.292242        -1.056160        -1.066045
 C         2.572816         0.271097        -0.909551
 O         2.476507         1.343992        -1.914657
 O         1.630895        -1.318415         0.646689
 H        -0.671303        -0.050188         1.059304
 H        -0.668125         0.922877        -0.579026
 H        -0.346995        -0.893914        -0.556212
 H         1.888047         2.084477         1.025369
 H         1.870967         0.554212         2.226903
 H         4.221913         0.724569         0.671811
 H         3.805193        -1.685814         1.043947
 H         4.336512        -0.719002        -1.399259
 H         2.987958        -1.772702        -1.856280
 H         2.298479         0.888003        -2.728033
