19
Iteration:   444
 C        -0.113542         0.097552        -0.169009
 C         1.279384         0.033875         0.209961
 C         2.126645         0.958669         1.208106
 C         3.322777         0.337798         0.437275
 C         2.984234        -1.181171         0.476261
 C         3.268943        -1.100747        -1.116676
 C         2.560228         0.278632        -0.879916
 O         2.448203         1.298415        -1.889116
 O         1.530661        -1.270867         0.629376
 H        -0.811758        -0.169270         0.652255
 H        -0.376946         1.166422        -0.546110
 H        -0.359183        -0.651657        -1.036485
 H         1.870542         2.019442         1.191460
 H         2.117546         0.804967         2.291273
 H         4.463353         0.611454         0.328579
 H         3.598814        -1.769723         1.186470
 H         4.240645        -0.996466        -1.402632
 H         2.738972        -1.853210        -1.595275
 H         2.234638         0.841046        -2.711774
