19
Iteration:   616
 C        -0.149489         0.161341        -0.141925
 C         1.345240         0.036124         0.097664
 C         2.020775         1.018159         1.114009
 C         3.290517         0.348765         0.489850
 C         3.087912        -1.174264         0.416857
 C         3.177692        -1.111936        -1.142380
 C         2.572688         0.212943        -0.912905
 O         2.374435         1.208559        -1.796246
 O         1.641454        -1.282385         0.693277
 H        -0.768022        -0.166259         0.662366
 H        -0.528674         1.117145        -0.256705
 H        -0.385226        -0.399749        -1.049925
 H         1.831194         2.091272         0.765826
 H         1.847703         0.728907         2.158276
 H         4.312297         0.841399         0.613815
 H         3.646957        -1.951723         0.922925
 H         4.331915        -1.140788        -1.400527
 H         2.590875        -1.969925        -1.733325
 H         3.242915         1.669199        -1.896011
