19
Iteration:   177charge 0 multiplicity 1
 C        -0.073898         0.128369        -0.224975
 C         1.312569         0.127983         0.064567
 C         2.057906         1.007016         1.139031
 C         3.264480         0.293065         0.553810
 C         3.077295        -1.213858         0.451595
 C         3.254897        -1.153640        -1.156878
 C         2.556458         0.209379        -0.846888
 O         2.291252         1.209788        -1.783963
 O         1.638806        -1.208756         0.647688
 H        -0.633767        -0.093633         0.779005
 H        -0.264150         1.142262        -0.681895
 H        -0.298915        -0.678216        -0.934167
 H         2.121789         1.989526         0.737594
 H         1.590725         0.907721         2.141770
 H         4.198651         0.744485         0.637558
 H         3.610150        -1.833731         1.271327
 H         4.182882        -1.122862        -1.514660
 H         2.668598        -1.868268        -1.583948
 H         3.064695         1.549966        -2.241343
