19
Iteration:  3322
 C        -0.033424         0.079773        -0.290756
 C         1.384293         0.021259         0.115895
 C         2.071482         0.942547         1.186905
 C         3.325562         0.379501         0.501312
 C         3.141845        -1.203783         0.426541
 C         3.202518        -1.071491        -1.175524
 C         2.473390         0.229947        -0.936385
 O         2.153167         1.200550        -1.811166
 O         1.689204        -1.204209         0.786496
 H        -0.771087         0.092071         0.558124
 H        -0.221262         1.092238        -0.762464
 H        -0.191146        -0.755331        -0.992381
 H         1.983186         1.959126         0.956117
 H         1.803007         0.744255         2.185231
 H         4.357093         0.698865         0.745777
 H         3.695708        -2.108174         0.918949
 H         4.257400        -0.867264        -1.456814
 H         2.873282        -1.881947        -1.799578
 H         2.464591         2.082850        -1.698745
