19
Iteration:  4910charge 0 multiplicity 1
 C        -0.181038        -0.006659        -0.169799
 C         1.307848        -0.041316         0.182084
 C         1.968548         1.011012         1.203428
 C         3.248431         0.484082         0.400498
 C         3.170671        -1.084474         0.391944
 C         3.093363        -1.116002        -1.135619
 C         2.542572         0.310684        -0.899966
 O         2.437419         1.185871        -1.963179
 O         1.784610        -1.337966         0.816148
 H        -0.822777        -0.224947         0.729315
 H        -0.473214         0.950340        -0.639137
 H        -0.441962        -0.651661        -0.992899
 H         1.634105         2.088045         1.084462
 H         2.001206         0.638739         2.285782
 H         4.193728         0.966974         0.366954
 H         3.985788        -1.580740         0.967097
 H         4.079751        -1.139844        -1.623436
 H         2.413907        -1.866049        -1.649914
 H         2.602183         2.092205        -1.654601
