19
Iteration:  3030charge 0 multiplicity 1
 C        -0.257490         0.026471        -0.098649
 C         1.239969         0.048125         0.171313
 C         2.068541         0.946846         1.150967
 C         3.285212         0.424535         0.507725
 C         3.116134        -1.125899         0.436168
 C         3.313229        -1.062657        -1.172433
 C         2.519586         0.256429        -0.933868
 O         2.468149         1.289134        -1.845131
 O         1.676918        -1.344271         0.649068
 H        -0.986022         0.007561         0.845492
 H        -0.453155         0.998965        -0.685832
 H        -0.567695        -0.781291        -0.707374
 H         1.829778         2.018233         0.988714
 H         1.900763         0.764412         2.247587
 H         4.279637         0.860175         0.445951
 H         3.586856        -1.869905         1.111988
 H         4.424131        -0.859415        -1.304895
 H         2.883764        -1.883414        -1.771787
 H         1.890179         0.996769        -2.574290
