19
Iteration:  1868
 C        -0.159769         0.005699        -0.334807
 C         1.241443         0.001532         0.135279
 C         1.941431         0.902016         1.337179
 C         3.292245         0.512545         0.569884
 C         3.092955        -1.107809         0.437192
 C         3.195977        -1.067390        -1.157532
 C         2.527115         0.311571        -0.853703
 O         2.426602         1.224812        -1.906743
 O         1.763897        -1.290338         0.649835
 H        -0.827023        -0.319676         0.340022
 H        -0.452213         0.903350        -0.668916
 H        -0.284846        -0.789945        -1.129249
 H         1.679383         1.946703         1.331954
 H         1.655908         0.503013         2.352081
 H         4.327997         0.813516         0.699464
 H         3.614102        -1.643940         1.251461
 H         4.192857        -0.939093        -1.807497
 H         2.593755        -1.953615        -1.584655
 H         3.399685         1.368655        -2.084448
