19
Iteration:  1286charge 0 multiplicity 1
 C        -0.132022        -0.003749        -0.222900
 C         1.315533         0.046218         0.105781
 C         1.936910         0.932562         1.167360
 C         3.239051         0.457007         0.498797
 C         3.081135        -1.102170         0.504863
 C         3.335514        -1.116954        -1.023059
 C         2.626579         0.255942        -0.874616
 O         2.316460         1.263032        -1.753937
 O         1.631775        -1.257242         0.486554
 H        -0.573843        -0.010745         0.679179
 H        -0.521428         0.741736        -1.012853
 H        -0.313370        -0.953620        -0.751848
 H         1.747643         1.954338         1.023206
 H         1.716806         0.576003         2.187075
 H         4.192870         0.898020         0.554156
 H         3.638149        -1.812245         1.106986
 H         4.533531        -1.070712        -1.206315
 H         3.051268        -2.023678        -1.606349
 H         3.040653         1.522022        -2.377674
