19
Iteration:  2314
 C         0.012355        -0.002130        -0.423174
 C         1.311002         0.047299         0.215545
 C         1.974961         0.979265         1.344154
 C         3.343327         0.440042         0.493720
 C         3.112017        -1.202775         0.435106
 C         3.264243        -1.082630        -1.082572
 C         2.536115         0.255865        -0.849226
 O         2.270203         1.335359        -1.852693
 O         1.653956        -1.274140         0.633855
 H        -0.876605        -0.460432         0.238463
 H        -0.239935         0.816663        -0.943276
 H         0.085747        -0.894021        -1.055088
 H         1.780083         2.025278         1.114728
 H         1.975150         0.633546         2.407113
 H         4.339575         0.794640         0.616945
 H         3.530808        -1.928347         1.196124
 H         4.360617        -0.937707        -1.364880
 H         2.631007        -1.730545        -1.789048
 H         1.504834         1.026400        -2.325889
