19
Iteration:  2616charge 0 multiplicity 1
 C        -0.106020         0.025296        -0.242876
 C         1.314645        -0.059354         0.195062
 C         1.975643         0.920033         1.217522
 C         3.255506         0.566194         0.496752
 C         3.182380        -1.145050         0.467236
 C         3.220020        -1.083504        -1.102437
 C         2.536096         0.258197        -0.865959
 O         2.324686         1.305264        -1.868878
 O         1.694345        -1.340426         0.612888
 H        -0.790514        -0.327889         0.414451
 H        -0.478612         1.124200        -0.586521
 H        -0.426946        -0.533376        -1.089242
 H         1.509979         1.904465         1.067540
 H         2.015608         0.534345         2.281689
 H         4.173395         1.111602         0.579226
 H         3.816986        -1.863744         1.038185
 H         4.160682        -1.211817        -1.572152
 H         2.532721        -1.665657        -1.506114
 H         3.166290         1.244654        -2.320457
