19
Iteration:  3835charge 0 multiplicity 1
 C        -0.139776         0.079644        -0.153953
 C         1.264251        -0.014418         0.218498
 C         2.056336         1.028528         1.130739
 C         3.320775         0.393374         0.430276
 C         3.151904        -1.203798         0.446140
 C         3.213127        -1.117419        -1.137725
 C         2.466999         0.242840        -0.921250
 O         2.226528         1.262442        -1.892182
 O         1.769492        -1.298400         0.737789
 H        -0.916109        -0.001255         0.580207
 H        -0.297788         1.113740        -0.542977
 H        -0.424577        -0.600827        -0.985417
 H         1.880784         2.059170         0.786799
 H         1.972412         0.856820         2.285332
 H         4.327600         0.834369         0.623829
 H         3.814663        -1.847363         1.026900
 H         4.301416        -0.788598        -1.307492
 H         2.837587        -2.017563        -1.776856
 H         3.080988         1.591540        -2.178307
