19
Iteration:  4896charge 0 multiplicity 1
 C        -0.168253        -0.050016        -0.074852
 C         1.252540        -0.023855         0.240532
 C         1.946849         0.967079         1.100265
 C         3.289302         0.561996         0.545593
 C         3.193274        -1.100207         0.422283
 C         3.076816        -1.116127        -1.232269
 C         2.437705         0.242805        -0.850894
 O         2.505755         1.175765        -2.020766
 O         1.795040        -1.273515         0.691906
 H        -0.746513        -0.182451         0.863833
 H        -0.357967         1.022379        -0.362191
 H        -0.400677        -0.800808        -0.770472
 H         1.805305         2.079032         0.923420
 H         1.717556         0.787467         2.233196
 H         4.303525         1.076725         0.668169
 H         3.670530        -1.874734         1.065662
 H         4.031307        -0.831674        -1.809496
 H         2.577001        -2.028499        -1.428707
 H         2.778079         2.064489        -1.745644
