19
Iteration:  4934
 C        -0.094376        -0.005166        -0.235740
 C         1.323806         0.001117         0.196213
 C         2.064041         0.983364         1.104719
 C         3.372450         0.420856         0.479753
 C         3.148081        -1.146911         0.445756
 C         3.182260        -1.144766        -1.114259
 C         2.453583         0.259299        -0.869089
 O         2.243117         1.220038        -1.911820
 O         1.726264        -1.218510         0.744059
 H        -0.827900        -0.215300         0.548097
 H        -0.347177         0.888295        -0.782180
 H        -0.206750        -0.695608        -1.149575
 H         1.908811         2.059274         0.901228
 H         2.052617         0.750715         2.174817
 H         4.256999         1.016692         0.485853
 H         3.697713        -1.806214         1.122922
 H         4.148597        -0.845974        -1.457233
 H         2.880638        -2.130244        -1.619098
 H         2.051281         2.071407        -1.436612
