19
Iteration:  4468
 C        -0.088918         0.001502        -0.375227
 C         1.335147         0.040048         0.214998
 C         2.096501         1.003298         1.242940
 C         3.364002         0.441029         0.432437
 C         3.125209        -1.101033         0.398852
 C         3.110159        -1.145606        -1.142517
 C         2.468380         0.248434        -0.929946
 O         2.292628         1.268180        -1.758492
 O         1.743410        -1.270723         0.785270
 H        -0.871828        -0.312223         0.340886
 H        -0.303056         0.973763        -0.802099
 H        -0.096233        -0.698436        -1.395936
 H         1.830626         2.117261         1.397034
 H         2.099355         0.440746         2.210016
 H         4.360678         0.901432         0.254225
 H         3.677889        -1.856185         1.078310
 H         4.084465        -0.774578        -1.510066
 H         2.713208        -2.123699        -1.567411
 H         1.530731         1.061111        -2.328871
