19
Iteration:   621
 C        -0.109254         0.123731        -0.131045
 C         1.349686         0.008792         0.129191
 C         2.009549         1.059606         1.112070
 C         3.312556         0.350959         0.519488
 C         3.099595        -1.176872         0.403902
 C         3.195613        -1.146524        -1.138155
 C         2.605681         0.226751        -0.927734
 O         2.344709         1.250222        -1.801792
 O         1.584488        -1.278828         0.674703
 H        -0.730883        -0.267970         0.740597
 H        -0.446126         1.249670        -0.310509
 H        -0.408296        -0.431970        -1.050223
 H         1.808358         2.020291         0.747592
 H         1.787536         0.877529         2.169838
 H         4.309322         0.768759         0.515078
 H         3.611098        -2.024449         0.902708
 H         4.186398        -1.204608        -1.365472
 H         2.690262        -1.808915        -1.712423
 H         3.283178         1.455865        -2.022263
