19
Iteration:  1240charge 0 multiplicity 1
 C        -0.117901         0.025845        -0.286634
 C         1.273648        -0.082539         0.178839
 C         1.900033         0.974358         1.103232
 C         3.239478         0.504110         0.522682
 C         3.108270        -1.123331         0.446384
 C         3.179470        -1.044318        -1.054991
 C         2.512042         0.286833        -0.815251
 O         2.448384         1.271595        -1.816848
 O         1.748852        -1.410890         0.629476
 H        -0.750950         0.032518         0.507349
 H        -0.081620         0.929628        -0.924775
 H        -0.262953        -0.743242        -0.964807
 H         1.557991         1.916101         0.693253
 H         1.687765         0.961959         2.203920
 H         4.255489         0.805381         0.800851
 H         3.717433        -1.755069         1.133520
 H         4.228088        -0.832075        -1.572789
 H         2.581893        -1.687676        -1.747792
 H         3.292739         1.637397        -2.064812
