19
Iteration:  3410
 C        -0.214239        -0.054332        -0.054005
 C         1.247076        -0.007374         0.248136
 C         2.085661         0.999586         1.190360
 C         3.241168         0.425070         0.437406
 C         3.111795        -1.092828         0.448789
 C         3.225467        -1.062069        -1.054049
 C         2.482914         0.298077        -0.961879
 O         2.514989         1.321410        -1.894498
 O         1.691750        -1.321463         0.543574
 H        -0.928887        -0.412808         0.710751
 H        -0.635060         0.944307        -0.419780
 H        -0.259261        -0.748500        -0.803865
 H         2.035275         2.024501         0.938323
 H         1.964245         0.811353         2.241328
 H         4.333917         0.709060         0.378596
 H         3.508837        -1.897375         1.139059
 H         4.294174        -0.983560        -1.297916
 H         2.751128        -1.918266        -1.521008
 H         2.000167         0.941022        -2.617952
