19
Iteration:  3769charge 0 multiplicity 1
 C        -0.093509         0.050586        -0.234585
 C         1.343200         0.024560         0.242322
 C         2.111516         1.004537         1.171923
 C         3.301508         0.435694         0.437269
 C         3.173262        -1.163049         0.420848
 C         3.200834        -1.065783        -1.175438
 C         2.478265         0.256530        -0.859982
 O         2.180922         1.212501        -1.850359
 O         1.656527        -1.299113         0.744780
 H        -0.813091        -0.084889         0.524218
 H        -0.286808         1.075583        -0.659727
 H        -0.204129        -0.849738        -0.894556
 H         2.009873         2.076007         0.850339
 H         2.016611         0.836346         2.341656
 H         4.359348         0.823916         0.585505
 H         3.718045        -1.840666         1.073426
 H         4.283453        -0.773084        -1.505795
 H         2.984677        -1.925768        -1.899748
 H         2.863733         1.065741        -2.554592
