19
Iteration:  4224
 C        -0.294716        -0.033581         0.013407
 C         1.289266         0.086874         0.125810
 C         2.037558         0.947149         1.184807
 C         3.235269         0.433861         0.453101
 C         3.290390        -1.079400         0.399712
 C         3.279909        -1.092071        -1.043278
 C         2.536015         0.285752        -0.887310
 O         2.385488         1.141872        -1.935184
 O         1.644693        -1.288116         0.534004
 H        -0.734331        -0.123328         0.955037
 H        -0.624639         0.943949        -0.440513
 H        -0.645512        -0.752448        -0.724587
 H         1.869756         2.032619         1.011648
 H         1.843817         0.792187         2.303521
 H         4.251618         0.825700         0.379453
 H         3.776831        -1.760144         1.036756
 H         4.217288        -0.755701        -1.624347
 H         2.986866        -1.978421        -1.561964
 H         2.615499         2.059949        -1.688320
