19
Iteration:  3816
 C        -0.030361         0.194198        -0.286704
 C         1.332164        -0.019201         0.211226
 C         2.055588         0.978289         1.176269
 C         3.303056         0.509087         0.465752
 C         3.208165        -1.075780         0.378365
 C         3.174648        -1.106777        -1.109084
 C         2.493361         0.193331        -0.832601
 O         2.150973         1.101757        -1.804231
 O         1.734329        -1.364029         0.660740
 H        -0.761905        -0.011093         0.615923
 H        -0.204904         1.222716        -0.556077
 H        -0.281996        -0.541196        -0.950533
 H         1.802679         1.959414         0.785738
 H         1.916846         0.915495         2.287012
 H         4.299284         0.947725         0.351608
 H         3.827567        -1.674196         1.062633
 H         4.016867        -1.118887        -1.720366
 H         2.449819        -1.810216        -1.506001
 H         2.851163         1.752048        -1.917738
