19
Iteration:  4950
 C        -0.087511         0.028399        -0.315966
 C         1.347959         0.064992         0.141080
 C         2.090729         1.144863         1.201472
 C         3.290007         0.427872         0.450990
 C         3.168423        -1.173910         0.430784
 C         3.239162        -1.085908        -1.111529
 C         2.547328         0.224145        -0.840664
 O         2.167614         1.125930        -1.832989
 O         1.710837        -1.319772         0.698125
 H        -0.644152        -0.171107         0.622579
 H        -0.462447         1.034442        -0.649000
 H        -0.271507        -0.831203        -0.892193
 H         2.082557         2.169992         0.834475
 H         1.693675         1.144937         2.219537
 H         4.440457         0.506167         0.475883
 H         3.815822        -1.880716         0.976544
 H         4.319805        -1.102084        -1.517178
 H         2.657059        -1.725348        -1.711653
 H         1.684176         1.919289        -1.483002
