19
Iteration:  4557charge 0 multiplicity 1
 C        -0.253235         0.049041         0.000780
 C         1.217185        -0.028173         0.255873
 C         1.978444         0.951391         1.137901
 C         3.192783         0.446086         0.395190
 C         3.202971        -1.154913         0.407185
 C         3.295781        -1.101919        -1.119916
 C         2.540743         0.297881        -0.908600
 O         2.531654         1.310753        -1.871078
 O         1.693018        -1.327670         0.609569
 H        -0.606913        -0.155127         1.021844
 H        -0.617946         0.964056        -0.451700
 H        -0.569687        -0.869630        -0.651927
 H         1.803952         1.960639         0.682622
 H         1.982842         0.920058         2.233814
 H         4.075898         1.090196         0.321477
 H         3.744488        -1.779114         1.036422
 H         4.272715        -1.034130        -1.613396
 H         2.838155        -1.971943        -1.621392
 H         1.917982         1.169287        -2.600637
