19
Iteration:  2762charge 0 multiplicity 1
 C        -0.232674        -0.042391        -0.087158
 C         1.260932         0.104414         0.127422
 C         2.008989         0.956266         1.144677
 C         3.284323         0.433956         0.545959
 C         3.136885        -1.124714         0.383468
 C         3.284956        -1.072706        -1.155280
 C         2.583480         0.287049        -0.861391
 O         2.381040         1.217812        -1.871652
 O         1.675995        -1.326789         0.604725
 H        -0.759607        -0.398807         0.936904
 H        -0.684618         0.864263        -0.396563
 H        -0.521538        -0.648585        -1.036810
 H         1.812983         2.050469         0.962847
 H         1.757175         0.733567         2.172078
 H         4.252959         0.942074         0.845668
 H         3.651698        -1.856582         1.057127
 H         4.242083        -0.898525        -1.575430
 H         2.722392        -1.770337        -1.749969
 H         3.215064         1.755246        -1.930084
