19
Iteration:  1180
 C        -0.021784         0.042221        -0.407476
 C         1.301293        -0.051238         0.190697
 C         1.990331         1.072143         1.212869
 C         3.190857         0.461778         0.588982
 C         3.102448        -1.184129         0.426597
 C         3.337304        -1.100429        -1.064725
 C         2.587501         0.261750        -0.871076
 O         2.262980         1.246094        -1.770151
 O         1.648207        -1.330841         0.640975
 H        -0.884351        -0.457469         0.235372
 H        -0.480088         1.021730        -0.445638
 H        -0.155441        -0.578738        -1.353366
 H         1.898610         2.025305         0.606121
 H         1.773017         1.225299         2.292326
 H         4.239606         0.818568         0.785647
 H         3.697553        -1.940434         0.901536
 H         4.294462        -0.923107        -1.366602
 H         2.765107        -1.625236        -1.803346
 H         2.936026         1.296265        -2.492731
