19
Iteration:  1869
 C        -0.157712         0.004182        -0.334362
 C         1.245559        -0.003242         0.136949
 C         1.935797         0.902032         1.332407
 C         3.287303         0.508523         0.562404
 C         3.083961        -1.092294         0.438147
 C         3.196590        -1.070298        -1.160093
 C         2.527139         0.308256        -0.857912
 O         2.433203         1.227738        -1.903398
 O         1.767529        -1.292438         0.646043
 H        -0.832719        -0.337019         0.397417
 H        -0.469902         0.953214        -0.661442
 H        -0.269506        -0.758854        -1.088384
 H         1.640503         1.951648         1.365191
 H         1.669336         0.509589         2.368208
 H         4.294890         0.819103         0.718957
 H         3.656815        -1.663645         1.249262
 H         4.187519        -0.963045        -1.798731
 H         2.591517        -1.960453        -1.569608
 H         3.420761         1.337278        -2.083481
