19
Iteration:  2907
 C        -0.273446         0.061206        -0.033850
 C         1.295097        -0.079430         0.097841
 C         1.861997         0.900565         1.091975
 C         3.227704         0.433648         0.488198
 C         3.203591        -1.103303         0.426201
 C         3.246804        -1.074122        -1.193558
 C         2.524323         0.224006        -0.913062
 O         2.546114         1.297943        -1.916940
 O         1.737798        -1.341877         0.690342
 H        -0.659635        -0.185292         1.098974
 H        -0.522989         1.100203        -0.209390
 H        -0.926886        -0.315829        -0.777554
 H         1.650233         1.947569         0.878321
 H         1.960009         0.842266         2.208107
 H         4.086716         0.937256         0.760647
 H         3.911247        -1.702771         0.954781
 H         4.263301        -0.905520        -1.500596
 H         2.855706        -1.951805        -1.724903
 H         2.339238         2.110827        -1.446584
