19
Iteration:  3396
 C        -0.271361        -0.069393        -0.028980
 C         1.254908         0.016642         0.170616
 C         2.015018         0.958862         1.168744
 C         3.322999         0.458779         0.497838
 C         3.073599        -1.204772         0.382436
 C         3.243723        -1.085095        -1.155101
 C         2.568836         0.323661        -0.862996
 O         2.521841         1.340156        -1.962973
 O         1.651459        -1.292080         0.687023
 H        -0.615845        -0.214986         0.922362
 H        -0.705162         0.865014        -0.337388
 H        -0.611597        -0.929072        -0.711884
 H         1.704627         2.041274         0.830150
 H         1.908342         0.864264         2.294390
 H         4.250110         0.956065         0.709126
 H         3.778768        -1.847162         0.978148
 H         4.287496        -0.809369        -1.470034
 H         2.835673        -1.815333        -1.856685
 H         2.430696         0.875391        -2.821224
