19
Iteration:   634
 C        -0.085360         0.077967        -0.160862
 C         1.328267         0.021698         0.187028
 C         2.048138         1.035725         1.090904
 C         3.338662         0.406717         0.524284
 C         3.020458        -1.275688         0.435989
 C         3.214287        -1.192871        -1.118152
 C         2.580664         0.255414        -0.833390
 O         2.343899         1.359246        -1.833046
 O         1.600782        -1.298603         0.611255
 H        -0.625244        -0.254758         0.831722
 H        -0.351863         1.182838        -0.332135
 H        -0.358810        -0.572652        -0.984619
 H         2.054885         2.002753         0.530053
 H         1.777447         1.223969         2.139657
 H         4.337135         0.640751         0.713901
 H         3.537479        -1.920477         1.140651
 H         4.230922        -1.069439        -1.444197
 H         2.661581        -1.905969        -1.652140
 H         2.799695         1.290405        -2.708447
