19
Iteration:  3225charge 0 multiplicity 1
 C        -0.177399         0.040995         0.104817
 C         1.304221        -0.028753         0.162988
 C         1.961130         1.073326         1.045926
 C         3.291100         0.423604         0.465836
 C         3.051012        -1.162494         0.401096
 C         3.206493        -1.033966        -1.140400
 C         2.598255         0.257095        -0.827047
 O         2.567640         1.224127        -1.919551
 O         1.665572        -1.355425         0.516602
 H        -0.646303        -0.335683         1.163848
 H        -0.786054         1.015335        -0.021907
 H        -0.427820        -0.793514        -0.480081
 H         1.825144         1.931232         0.411568
 H         1.685888         1.264553         2.128299
 H         4.271501         0.758323         0.793415
 H         3.470789        -2.029336         1.041624
 H         4.264644        -0.936723        -1.489860
 H         2.604438        -1.717005        -1.698232
 H         1.727060         1.637033        -1.780307
