19
Iteration:  1132
 C        -0.139870         0.016698        -0.274851
 C         1.246707        -0.034005         0.131379
 C         1.902957         0.897422         1.231352
 C         3.245334         0.453114         0.501109
 C         3.077760        -1.123964         0.464112
 C         3.325593        -1.149524        -1.072039
 C         2.588545         0.330140        -0.911431
 O         2.390813         1.318279        -1.895216
 O         1.700794        -1.290971         0.661358
 H        -0.933516        -0.087396         0.445173
 H        -0.452494         1.151176        -0.590913
 H        -0.426747        -0.666855        -1.083465
 H         1.667444         1.928425         1.184918
 H         1.841793         0.490352         2.235434
 H         4.179719         0.904616         0.738575
 H         3.655990        -1.741071         1.206442
 H         4.428348        -1.110993        -1.233091
 H         2.868373        -1.985625        -1.564983
 H         3.262593         1.538006        -2.242786
