19
Iteration:  3650
 C        -0.108505         0.121168        -0.304226
 C         1.368574        -0.054176         0.166237
 C         2.074869         0.946088         1.148668
 C         3.336642         0.593089         0.412708
 C         3.100466        -1.165698         0.510382
 C         3.236379        -1.087657        -1.143527
 C         2.611342         0.263987        -0.928526
 O         2.205748         1.195439        -1.824972
 O         1.686401        -1.333827         0.764191
 H        -0.700705        -0.130246         0.655472
 H        -0.277814         1.275763        -0.504987
 H        -0.247021        -0.694606        -1.137390
 H         1.797220         2.000487         1.058557
 H         1.886466         0.444656         2.173575
 H         4.431549         0.870506         0.583094
 H         3.733337        -1.832378         1.099976
 H         4.223490        -1.212989        -1.509292
 H         2.673948        -1.829054        -1.757652
 H         1.295509         1.454644        -1.835813
