19
Iteration:  3038charge 0 multiplicity 1
 C        -0.195509         0.022475        -0.073055
 C         1.284360         0.031789         0.196257
 C         2.029217         0.983764         1.172513
 C         3.228923         0.397890         0.415794
 C         3.063496        -1.174312         0.408809
 C         3.310497        -1.059108        -1.098619
 C         2.562890         0.259665        -0.919678
 O         2.474614         1.334566        -1.893961
 O         1.638676        -1.337090         0.650420
 H        -0.779568        -0.040300         0.946445
 H        -0.568676         0.892247        -0.544946
 H        -0.429483        -0.898411        -0.576391
 H         1.851942         2.102666         1.012965
 H         1.867678         0.545999         2.261756
 H         4.187400         0.765708         0.589467
 H         3.747673        -1.708675         1.082986
 H         4.328945        -0.737231        -1.362045
 H         2.948796        -1.761780        -1.830694
 H         2.153522         0.872637        -2.716506
