19
Iteration:  3006
 C        -0.117607         0.116707        -0.264140
 C         1.329810         0.038804         0.131489
 C         1.971958         0.985131         1.092775
 C         3.241574         0.406362         0.502001
 C         3.263252        -1.149364         0.393677
 C         3.156098        -1.132510        -1.108988
 C         2.506971         0.237794        -0.843120
 O         2.381740         1.251513        -1.775728
 O         1.785299        -1.367429         0.679660
 H        -0.814765         0.077527         0.722494
 H        -0.265916         1.119404        -0.676358
 H        -0.581433        -0.604860        -0.902467
 H         1.689663         2.048869         0.848997
 H         1.610196         0.817037         2.193177
 H         4.154032         0.878409         0.548059
 H         3.801088        -1.792050         1.082068
 H         4.098977        -0.846194        -1.617555
 H         2.489925        -1.838479        -1.581339
 H         1.460830         1.487394        -1.731661
