19
Iteration:  4507charge 0 multiplicity 1
 C        -0.206608         0.020269        -0.056498
 C         1.324288        -0.023221         0.120226
 C         1.952646         1.059493         1.132435
 C         3.347248         0.447776         0.552902
 C         3.142043        -1.136828         0.375762
 C         3.200615        -1.075670        -1.152465
 C         2.554482         0.246474        -0.880231
 O         2.395594         1.292985        -1.866463
 O         1.726540        -1.334866         0.682112
 H        -0.764045        -0.162972         0.885200
 H        -0.370207         0.995862        -0.599762
 H        -0.455427        -0.667277        -0.777051
 H         1.856846         2.063995         0.799027
 H         1.549412         0.808576         2.127178
 H         4.422651         0.576164         0.738555
 H         3.857657        -1.877441         0.809678
 H         4.188821        -1.156513        -1.643538
 H         2.722902        -1.877192        -1.706274
 H         1.791739         1.047224        -2.591685
