19
Iteration:  2522
 C        -0.101742        -0.006134        -0.315249
 C         1.228664         0.001179         0.190525
 C         1.932150         0.866898         1.185776
 C         3.275304         0.477229         0.541495
 C         3.195581        -1.097931         0.383328
 C         3.138979        -1.079018        -1.110633
 C         2.467997         0.286384        -0.851191
 O         2.493348         1.307281        -1.848623
 O         1.746838        -1.289194         0.726751
 H        -0.832589        -0.180977         0.617802
 H        -0.187448         0.789507        -0.907691
 H        -0.227565        -0.936336        -0.922713
 H         1.818964         1.945832         1.001515
 H         1.769703         0.598506         2.205898
 H         4.276257         0.917183         0.629287
 H         3.818285        -1.789196         0.876796
 H         4.179358        -0.813743        -1.469029
 H         2.774550        -2.000935        -1.786573
 H         1.655396         1.337394        -2.384467
