19
Iteration:  3779charge 0 multiplicity 1
 C        -0.071580         0.129951        -0.278500
 C         1.337064         0.040758         0.206453
 C         2.082718         0.929638         1.219879
 C         3.326202         0.361654         0.430654
 C         3.139490        -1.119302         0.415450
 C         3.261438        -1.096907        -1.156471
 C         2.463844         0.275742        -0.888688
 O         2.096403         1.206799        -1.869354
 O         1.720663        -1.296430         0.791879
 H        -0.610758        -0.056374         0.555203
 H        -0.351797         1.028302        -0.904983
 H        -0.226787        -0.671783        -1.122066
 H         2.005161         2.037973         0.977891
 H         1.959312         0.850156         2.403702
 H         4.308830         0.855864         0.661758
 H         3.924368        -1.659604         0.918789
 H         4.447624        -1.032301        -1.346837
 H         2.600662        -1.933789        -1.656058
 H         2.911483         1.289629        -2.434313
