19
Iteration:  1204
 C        -0.118537        -0.015590        -0.423298
 C         1.318236         0.059277         0.083937
 C         2.008982         0.838071         1.144715
 C         3.307581         0.412349         0.546615
 C         3.085794        -1.128069         0.508350
 C         3.240006        -1.110878        -1.008058
 C         2.548303         0.321818        -0.818732
 O         2.260625         1.263997        -1.824645
 O         1.718458        -1.196538         0.670559
 H        -0.952825        -0.410057         0.239191
 H        -0.522025         0.867492        -0.666978
 H        -0.135230        -0.709031        -1.272943
 H         1.839421         1.991588         1.126522
 H         1.703526         0.376213         2.090750
 H         4.448469         0.675570         0.656991
 H         3.683086        -1.754858         1.159376
 H         4.204279        -0.790331        -1.362651
 H         2.770399        -1.885012        -1.664748
 H         3.130512         1.575488        -2.046269
