19
Iteration:  1993charge 0 multiplicity 1
 C        -0.027994         0.014893        -0.441404
 C         1.313399         0.011276         0.138337
 C         1.934944         0.914155         1.250023
 C         3.235378         0.469278         0.497412
 C         3.143463        -1.112929         0.432676
 C         3.128222        -1.023013        -1.097329
 C         2.498509         0.300028        -0.800673
 O         2.314019         1.182900        -1.865936
 O         1.786308        -1.381562         0.734631
 H        -0.887195         0.177371         0.350452
 H        -0.072276         1.062685        -0.947774
 H        -0.218659        -0.611567        -1.166044
 H         1.908532         2.077182         1.126891
 H         1.733793         0.762982         2.328755
 H         4.237433         0.926713         0.687297
 H         3.776295        -1.887036         0.865969
 H         4.171866        -0.769983        -1.492912
 H         2.674656        -1.855577        -1.686250
 H         2.880139         1.934522        -1.519472
