19
Iteration:  2586
 C        -0.208601        -0.041439        -0.070871
 C         1.288156         0.030382         0.044408
 C         1.962448         0.991790         1.027706
 C         3.237083         0.315735         0.562782
 C         3.096170        -1.206632         0.460213
 C         3.369342        -0.963718        -1.081592
 C         2.465365         0.244321        -0.849413
 O         2.438622         1.374280        -1.837542
 O         1.722049        -1.310629         0.613643
 H        -0.735113        -0.281542         0.931765
 H        -0.668326         0.973433        -0.218500
 H        -0.715414        -0.720066        -0.785475
 H         1.942726         2.035534         0.684324
 H         1.668663         0.855595         2.072064
 H         4.245719         0.692910         0.610600
 H         3.709202        -1.828653         1.045507
 H         4.459925        -0.675524        -1.148972
 H         3.026479        -1.761052        -1.891636
 H         2.503023         0.784811        -2.643701
