19
Iteration:  4434charge 0 multiplicity 1
 C        -0.072157         0.054096        -0.269875
 C         1.361107        -0.025965         0.211650
 C         1.982605         1.042394         1.025502
 C         3.373179         0.415964         0.482699
 C         3.168288        -1.126778         0.419065
 C         3.109554        -1.102003        -1.104319
 C         2.529726         0.215204        -0.858301
 O         2.301833         1.332518        -1.769442
 O         1.742160        -1.357371         0.725159
 H        -0.791345        -0.165388         0.525431
 H        -0.274190         1.151543        -0.412230
 H        -0.369612        -0.667244        -1.233990
 H         1.715151         2.096384         0.672033
 H         1.806557         0.958777         2.157006
 H         4.369369         0.912325         0.511019
 H         3.734881        -1.971409         1.020393
 H         4.093546        -1.069987        -1.623133
 H         2.691007        -2.053352        -1.526572
 H         1.425846         1.067564        -2.059011
