19
Iteration:  4550charge 0 multiplicity 1
 C        -0.231673         0.030043        -0.016375
 C         1.220432        -0.026540         0.266829
 C         2.002250         0.991197         1.120367
 C         3.205821         0.426826         0.346049
 C         3.215878        -1.121669         0.377388
 C         3.329806        -1.094645        -1.058182
 C         2.444167         0.256990        -0.964771
 O         2.549542         1.320327        -1.836375
 O         1.675804        -1.358699         0.592913
 H        -0.692241        -0.070393         1.039318
 H        -0.669566         1.051738        -0.295183
 H        -0.730657        -0.743387        -0.449896
 H         1.690628         1.968831         0.843795
 H         1.928198         0.804678         2.204550
 H         4.181535         0.980748         0.409087
 H         3.779674        -1.663253         1.170873
 H         4.431622        -1.065474        -1.464342
 H         2.791424        -1.888950        -1.627777
 H         1.977066         1.226885        -2.602632
