19
Iteration:  2772
 C        -0.189253         0.012498        -0.181681
 C         1.350779         0.001492         0.081947
 C         1.944262         0.946337         1.139250
 C         3.280366         0.392444         0.528045
 C         3.133265        -1.181743         0.423953
 C         3.233162        -1.043252        -1.187262
 C         2.590690         0.254886        -0.847624
 O         2.322651         1.194293        -1.816458
 O         1.708219        -1.206307         0.627480
 H        -0.566024        -0.430555         0.860498
 H        -0.573405         1.028330        -0.186545
 H        -0.546778        -0.817538        -0.934465
 H         1.955305         2.073306         0.924704
 H         1.723127         0.738370         2.174508
 H         4.354057         0.782044         0.699531
 H         3.681460        -1.699623         1.233903
 H         4.226687        -0.829091        -1.473425
 H         2.794538        -1.747024        -1.824399
 H         2.859775         2.032611        -1.744838
