19
Iteration:  3244
 C        -0.250933         0.016337        -0.007000
 C         1.261747         0.006739         0.140766
 C         2.026747         0.984280         1.088482
 C         3.282880         0.388913         0.594714
 C         3.117582        -1.185982         0.360731
 C         3.218657        -1.080969        -1.152754
 C         2.600457         0.253261        -0.969194
 O         2.505648         1.288838        -1.969336
 O         1.679060        -1.274902         0.705540
 H        -0.618116        -0.354323         0.908770
 H        -0.504193         1.062987        -0.083539
 H        -0.792634        -0.655394        -0.840637
 H         2.006338         2.034262         0.893552
 H         1.866487         0.811110         2.107689
 H         4.285290         0.738532         0.688256
 H         3.624803        -1.939124         1.045301
 H         4.285129        -0.899681        -1.394695
 H         2.667982        -1.817160        -1.716634
 H         1.672116         1.738697        -1.872083
