19
Iteration:   422
 C        -0.212526         0.284680        -0.200034
 C         1.282831         0.011485         0.113482
 C         1.986360         0.957013         1.082140
 C         3.316526         0.365224         0.528777
 C         3.098942        -1.212666         0.388017
 C         3.204242        -1.207836        -1.118747
 C         2.477787         0.154382        -0.869868
 O         2.484909         1.301292        -1.769158
 O         1.761023        -1.284477         0.702511
 H        -0.823654        -0.100359         0.645800
 H        -0.506289         1.371190        -0.435377
 H        -0.484366        -0.406263        -1.110926
 H         1.895487         2.045344         0.904201
 H         1.774818         0.921287         2.156742
 H         4.297269         1.014230         0.658003
 H         3.748635        -1.890967         0.965390
 H         4.188082        -1.032751        -1.344721
 H         2.755198        -1.932367        -1.729718
 H         1.903214         1.045895        -2.530181
