19
Iteration:   534
 C        -0.149860         0.153269        -0.197737
 C         1.350047         0.144322         0.147606
 C         2.099756         0.989065         1.133558
 C         3.316970         0.263726         0.529086
 C         3.054606        -1.181292         0.403462
 C         3.237312        -1.224969        -1.128958
 C         2.558793         0.190883        -0.902014
 O         2.320068         1.310283        -1.760180
 O         1.663607        -1.250494         0.635464
 H        -0.819744         0.064132         0.693957
 H        -0.369779         1.110434        -0.801721
 H        -0.434240        -0.668225        -0.868835
 H         2.108982         2.017860         0.804088
 H         1.976419         1.025900         2.228816
 H         4.259984         0.700687         0.826192
 H         3.563676        -1.838858         1.174079
 H         4.187239        -0.895925        -1.383447
 H         2.812412        -1.993417        -1.681063
 H         1.891151         1.036396        -2.620793
