19
Iteration:  2974
 C        -0.061151        -0.030049        -0.411689
 C         1.278979         0.000513         0.235224
 C         2.113151         0.931052         1.184814
 C         3.329711         0.425995         0.499004
 C         3.170267        -1.184670         0.379978
 C         3.118382        -1.068141        -1.091234
 C         2.565999         0.310710        -0.867682
 O         2.246271         1.252809        -1.861500
 O         1.700932        -1.262050         0.766723
 H        -0.928632        -0.092537         0.448500
 H        -0.271222         1.016476        -0.797793
 H        -0.087788        -0.560851        -1.301237
 H         1.799509         1.973324         0.943647
 H         2.008866         0.661493         2.297124
 H         4.301160         0.751758         0.616926
 H         3.732699        -1.871375         1.001519
 H         4.166945        -1.030456        -1.501787
 H         2.674819        -1.789841        -1.774238
 H         1.790088         1.996064        -1.362310
