19
Iteration:  1638
 C        -0.137583         0.021541        -0.379297
 C         1.283529         0.036443         0.140558
 C         1.962534         0.888789         1.260176
 C         3.293353         0.382746         0.624682
 C         3.154154        -1.182069         0.484684
 C         3.276956        -1.040236        -1.093655
 C         2.506194         0.374482        -0.862957
 O         2.306294         1.290973        -1.890812
 O         1.712432        -1.284864         0.654915
 H        -0.974218        -0.137282         0.331410
 H        -0.210463         0.831638        -1.057817
 H        -0.048197        -1.015909        -1.044454
 H         1.813145         2.006629         1.141283
 H         1.639077         0.658267         2.305381
 H         4.264938         0.956786         0.823614
 H         3.606109        -1.985533         1.066924
 H         4.164590        -0.867044        -1.527305
 H         2.825747        -1.796988        -1.705493
 H         3.070027         1.012521        -2.451828
