19
Iteration:  2947charge 0 multiplicity 1
 C        -0.103530        -0.042577        -0.287161
 C         1.290622         0.051874         0.207590
 C         2.103560         0.976018         1.328155
 C         3.282968         0.446777         0.553831
 C         3.128812        -1.144617         0.378606
 C         3.152301        -1.058835        -1.187098
 C         2.469479         0.268574        -0.862099
 O         2.358163         1.158339        -1.899729
 O         1.700196        -1.239461         0.630350
 H        -0.568880        -0.389682         0.520202
 H        -0.596005         0.891010        -0.582478
 H        -0.086176        -0.893209        -1.136471
 H         1.777753         1.992645         0.953689
 H         1.866531         0.809048         2.390080
 H         4.406546         0.787623         0.625693
 H         3.650540        -1.839283         1.096836
 H         4.072618        -0.719719        -1.637898
 H         2.701970        -1.831798        -1.829039
 H         2.474607         2.056180        -1.482564
