19
Iteration:  4745charge 0 multiplicity 1
 C        -0.116708         0.017462        -0.110759
 C         1.309592        -0.066422         0.181433
 C         2.000791         1.140343         1.064924
 C         3.283152         0.423397         0.456277
 C         3.171809        -1.132660         0.507791
 C         3.133223        -1.161721        -1.174748
 C         2.489891         0.223156        -0.885106
 O         2.403290         1.340257        -1.813098
 O         1.752774        -1.347584         0.688087
 H        -0.623733        -0.315475         0.877896
 H        -0.532007         1.012159        -0.548623
 H        -0.365656        -0.739793        -0.825792
 H         1.772393         2.105352         0.549622
 H         1.782556         1.182552         2.173724
 H         4.209630         1.036812         0.624117
 H         3.699704        -2.000222         0.970959
 H         4.163701        -1.024942        -1.694782
 H         2.582404        -1.884344        -1.761603
 H         2.084751         0.958739        -2.642643
