19
Iteration:  1420charge 0 multiplicity 1
 C        -0.226174         0.076596        -0.255696
 C         1.227152        -0.095959         0.175769
 C         1.871881         0.912103         1.223615
 C         3.224329         0.529231         0.568584
 C         3.160228        -1.142247         0.460112
 C         3.187411        -1.095430        -1.082815
 C         2.545593         0.254498        -0.927326
 O         2.505036         1.329488        -1.889240
 O         1.775354        -1.362273         0.624995
 H        -1.073317         0.001413         0.490187
 H        -0.262487         0.919002        -0.851832
 H        -0.493746        -0.867346        -0.932171
 H         1.636815         2.012554         1.013152
 H         1.838963         0.768008         2.293984
 H         4.177971         1.190368         0.670604
 H         3.826724        -1.770322         1.061728
 H         4.394987        -0.943832        -1.453877
 H         2.692938        -2.065329        -1.546164
 H         3.413753         1.547150        -2.271543
