19
Iteration:  2928
 C        -0.158929        -0.007068        -0.095866
 C         1.306657        -0.028695         0.167142
 C         1.961519         0.926253         1.143175
 C         3.281267         0.462130         0.478876
 C         3.112982        -1.131003         0.396686
 C         3.176262        -1.043036        -1.087365
 C         2.583546         0.343441        -0.868545
 O         2.431501         1.257577        -1.959987
 O         1.727315        -1.365439         0.664540
 H        -0.841478        -0.330694         0.728878
 H        -0.538155         0.896160        -0.440716
 H        -0.349072        -0.513642        -1.046569
 H         1.901378         2.047447         1.060187
 H         1.673666         0.563581         2.199695
 H         4.231343         0.908803         0.653741
 H         3.603237        -1.911232         0.938797
 H         4.137803        -1.134651        -1.480587
 H         2.504765        -1.726526        -1.602611
 H         2.507210         2.192390        -1.706155
