19
Iteration:  3117charge 0 multiplicity 1
 C        -0.044492         0.087752        -0.311257
 C         1.365905        -0.006789         0.151084
 C         2.099887         0.934602         1.163360
 C         3.302116         0.379216         0.364054
 C         3.075698        -1.161533         0.445996
 C         3.215109        -1.109245        -1.107398
 C         2.556053         0.248854        -0.898545
 O         2.176634         1.287528        -1.835891
 O         1.672105        -1.292621         0.811844
 H        -0.728657        -0.278824         0.561370
 H        -0.335456         1.150690        -0.591379
 H        -0.184306        -0.397827        -1.187303
 H         1.629728         1.947746         0.862480
 H         2.069207         0.672397         2.349982
 H         4.328525         0.741361         0.440435
 H         3.734035        -1.856914         1.036642
 H         4.316966        -1.090661        -1.347367
 H         2.776951        -1.925920        -1.712197
 H         2.487751         2.175754        -1.521723
