19
Iteration:  3619charge 0 multiplicity 1
 C        -0.070822         0.141483        -0.345046
 C         1.317875         0.015468         0.263808
 C         2.018247         1.001767         1.188299
 C         3.356682         0.448394         0.528580
 C         3.290285        -1.187236         0.421887
 C         3.161327        -1.102712        -1.120340
 C         2.338408         0.246592        -0.878506
 O         2.283163         1.179691        -1.828576
 O         1.771025        -1.314686         0.710656
 H        -0.920777        -0.220075         0.359146
 H        -0.434990         1.050087        -0.871039
 H        -0.133472        -0.578674        -1.096703
 H         2.111120         1.978261         0.904909
 H         1.648640         0.859912         2.188183
 H         4.391506         0.992510         0.511163
 H         4.027767        -1.872425         0.835036
 H         3.939250        -0.789006        -1.753766
 H         2.681590        -2.018333        -1.513591
 H         1.408962         1.522777        -2.177903
