19
Iteration:  3215
 C        -0.201605         0.018439         0.093585
 C         1.284680         0.007279         0.158866
 C         1.990999         1.080279         1.053889
 C         3.224375         0.488509         0.514982
 C         3.110612        -1.196105         0.380899
 C         3.224056        -1.095838        -1.117745
 C         2.511519         0.213551        -0.905066
 O         2.592521         1.203526        -1.862483
 O         1.671335        -1.325894         0.482171
 H        -0.345424        -0.222835         1.259842
 H        -0.644842         1.011905        -0.275661
 H        -0.650558        -0.704948        -0.441225
 H         1.759266         2.130491         0.725443
 H         1.909736         1.082369         2.234002
 H         4.292148         0.776306         0.522749
 H         3.587679        -1.923464         1.092615
 H         4.178702        -0.729228        -1.547171
 H         2.693314        -1.885292        -1.655372
 H         1.797405         1.756986        -1.803354
