19
Iteration:  3021charge 0 multiplicity 1
 C        -0.293111         0.090409        -0.173767
 C         1.248543        -0.072098         0.154056
 C         2.000377         0.934938         1.162620
 C         3.344801         0.441970         0.508335
 C         3.167130        -1.133759         0.426820
 C         3.243398        -1.075055        -1.137422
 C         2.489662         0.238054        -0.860844
 O         2.446227         1.242918        -1.795746
 O         1.754530        -1.260319         0.618730
 H        -0.834643         0.139211         0.808839
 H        -0.528550         1.067722        -0.766683
 H        -0.560684        -0.693120        -0.918660
 H         2.001313         1.934177         0.768854
 H         1.901481         0.909891         2.199350
 H         4.388732         0.957714         0.574888
 H         3.748314        -1.921855         0.943739
 H         4.282803        -0.947425        -1.576858
 H         2.899543        -2.009356        -1.661378
 H         1.611441         1.281337        -2.300222
