19
Iteration:  2017
 C        -0.143906         0.008993        -0.303156
 C         1.329795        -0.055189         0.133479
 C         1.986231         0.996976         1.118648
 C         3.294802         0.394012         0.529013
 C         3.121811        -1.172786         0.472634
 C         3.292361        -1.106738        -1.070376
 C         2.625490         0.291336        -0.858350
 O         2.262945         1.283188        -1.848505
 O         1.692615        -1.275174         0.631661
 H        -1.058894        -0.116956         0.497846
 H        -0.485161         0.853901        -0.889956
 H        -0.198506        -0.713184        -1.058609
 H         1.659114         2.072851         0.899197
 H         1.809829         0.899634         2.220118
 H         4.314080         0.775476         0.834459
 H         3.567353        -1.904627         1.079814
 H         4.329103        -0.902587        -1.249166
 H         2.973119        -1.925479        -1.702383
 H         2.248061         2.084399        -1.237220
