19
Iteration:  2941
 C        -0.102499        -0.060436        -0.248011
 C         1.303199         0.037456         0.212334
 C         2.030581         0.972981         1.270131
 C         3.288210         0.451442         0.549104
 C         3.135346        -1.158953         0.387821
 C         3.143641        -1.055081        -1.177423
 C         2.514961         0.299796        -0.873263
 O         2.382479         1.175821        -1.916536
 O         1.669939        -1.247461         0.617477
 H        -0.748945        -0.509048         0.674989
 H        -0.386950         0.997398        -0.407293
 H        -0.170224        -0.814362        -0.948672
 H         1.760567         2.001762         1.043670
 H         2.051297         0.751090         2.370568
 H         4.251125         0.818153         0.670306
 H         3.828902        -1.785473         0.921052
 H         4.188104        -0.842712        -1.529660
 H         2.627219        -1.864176        -1.709453
 H         2.521055         2.078925        -1.563717
