19
Iteration:  3497charge 0 multiplicity 1
 C        -0.152484         0.011919        -0.272354
 C         1.281906         0.073581         0.165795
 C         2.098603         0.949357         1.232771
 C         3.321848         0.467231         0.429553
 C         3.148147        -1.129047         0.436042
 C         3.202642        -1.142290        -1.155489
 C         2.495354         0.232337        -0.845486
 O         2.334590         1.233830        -1.807504
 O         1.723873        -1.231211         0.656579
 H        -0.719230        -0.213064         0.572790
 H        -0.528864         0.891217        -0.889676
 H        -0.245736        -0.804705        -0.932578
 H         1.986012         2.025053         1.269385
 H         2.058448         0.564873         2.275383
 H         4.339157         0.903795         0.609844
 H         3.484638        -1.738341         1.304921
 H         4.170083        -0.784549        -1.498457
 H         2.826855        -1.990087        -1.731682
 H         1.470866         1.085984        -2.262075
