19
Iteration:  2822charge 0 multiplicity 1
 C        -0.083429         0.037066        -0.423236
 C         1.328278        -0.023201         0.232704
 C         2.068475         0.958911         1.271509
 C         3.290760         0.451664         0.478632
 C         3.155914        -1.094848         0.383551
 C         3.131047        -1.018623        -1.131549
 C         2.441124         0.226109        -0.833501
 O         2.329997         1.184339        -1.818639
 O         1.761567        -1.331636         0.707345
 H        -0.944135         0.053376         0.233319
 H         0.008642         1.148528        -0.737106
 H        -0.166862        -0.661073        -1.166141
 H         1.800017         1.962323         1.048781
 H         2.029375         0.694889         2.353467
 H         4.224464         0.890507         0.308418
 H         3.741595        -1.812916         0.919253
 H         4.169314        -0.933966        -1.664041
 H         2.443204        -1.818326        -1.546129
 H         1.771979         1.914847        -1.509437
