19
Iteration:  3164
 C        -0.035760         0.092913        -0.232325
 C         1.347249        -0.030153         0.251587
 C         2.040793         0.945788         1.251867
 C         3.320727         0.480633         0.500579
 C         3.094709        -1.146167         0.357938
 C         3.083866        -1.038916        -1.155223
 C         2.512937         0.300222        -0.821291
 O         2.358238         1.163690        -1.956721
 O         1.703332        -1.347429         0.709865
 H        -0.710790         0.053248         0.584725
 H        -0.199787         1.007724        -0.831249
 H        -0.184142        -0.736054        -1.060797
 H         2.088618         2.043815         0.954435
 H         1.788069         0.801472         2.331569
 H         4.415241         0.852258         0.433382
 H         3.622543        -1.820617         0.957521
 H         4.104725        -1.124577        -1.577429
 H         2.433140        -1.770645        -1.749891
 H         1.810594         1.908765        -1.735656
