19
Iteration:  3112
 C        -0.025207         0.092744        -0.236758
 C         1.352083        -0.024330         0.168812
 C         2.055596         0.941981         1.120928
 C         3.282604         0.441502         0.368325
 C         3.104777        -1.187454         0.464417
 C         3.180995        -1.110832        -1.113143
 C         2.511105         0.237624        -0.921418
 O         2.223238         1.300081        -1.843317
 O         1.679071        -1.303901         0.788178
 H        -0.705016        -0.238968         0.456831
 H        -0.244201         1.105655        -0.422691
 H        -0.094088        -0.545111        -1.273312
 H         1.797807         1.956737         0.946485
 H         2.075794         0.628843         2.071254
 H         4.340575         0.690372         0.571104
 H         3.622057        -1.848115         1.147219
 H         4.224310        -1.016605        -1.343221
 H         2.888590        -1.928516        -1.773275
 H         2.629393         2.094320        -1.518671
