19
Iteration:   433
 C        -0.202038         0.167664        -0.191913
 C         1.287820         0.063709         0.203381
 C         2.085344         0.980106         1.199336
 C         3.244085         0.391672         0.455980
 C         3.125850        -1.239365         0.422724
 C         3.236546        -1.192736        -1.086744
 C         2.552316         0.240483        -0.950796
 O         2.448597         1.309745        -1.832412
 O         1.621717        -1.281154         0.671083
 H        -0.885550        -0.085329         0.646660
 H        -0.388771         1.275357        -0.465857
 H        -0.433737        -0.470807        -1.140568
 H         2.083152         2.012895         0.831201
 H         1.909045         0.704247         2.233669
 H         4.339915         0.754149         0.694355
 H         3.540369        -2.074507         1.012684
 H         4.219386        -0.982494        -1.303053
 H         2.938612        -2.009993        -1.673653
 H         2.119264         1.018765        -2.680948
