19
Iteration:  1005charge 0 multiplicity 1
 C        -0.000889         0.041405        -0.302126
 C         1.378334         0.006141         0.148721
 C         1.953610         0.875572         1.160180
 C         3.276575         0.483611         0.591172
 C         3.078085        -1.166081         0.501641
 C         3.225534        -0.979068        -1.076361
 C         2.543716         0.317516        -0.840307
 O         2.422139         1.162640        -1.949920
 O         1.596716        -1.291333         0.621207
 H        -0.582151        -0.503623         0.501323
 H        -0.391726         0.975759        -0.420816
 H        -0.149175        -0.440232        -1.270063
 H         1.709731         1.966850         1.140175
 H         1.732249         0.552688         2.248366
 H         4.293214         0.742182         1.013376
 H         3.570272        -1.982524         1.081463
 H         4.284052        -0.793539        -1.440376
 H         2.609345        -1.709564        -1.801973
 H         1.692696         1.834196        -1.800490
