19
Iteration:   620
 C        -0.117125         0.130577        -0.129990
 C         1.351182         0.014032         0.120513
 C         2.010118         1.056231         1.113695
 C         3.306105         0.346081         0.513581
 C         3.098739        -1.172830         0.405888
 C         3.193014        -1.137715        -1.139779
 C         2.600791         0.224802        -0.928415
 O         2.350566         1.239906        -1.799459
 O         1.594513        -1.280291         0.679722
 H        -0.739734        -0.233754         0.711379
 H        -0.477382         1.232514        -0.296498
 H        -0.402247        -0.429469        -1.062494
 H         1.809310         2.010775         0.753674
 H         1.805817         0.835908         2.161409
 H         4.326661         0.800561         0.533653
 H         3.620833        -2.021440         0.901517
 H         4.195526        -1.198238        -1.362684
 H         2.672448        -1.840215        -1.716299
 H         3.273022         1.488920        -1.979769
