19
Iteration:  4791charge 0 multiplicity 1
 C        -0.043068         0.038055        -0.302660
 C         1.353060         0.065147         0.173668
 C         2.063092         0.968859         1.255008
 C         3.343407         0.450106         0.442493
 C         3.131762        -1.184003         0.456942
 C         3.186913        -1.106508        -1.125559
 C         2.450368         0.248276        -0.901547
 O         2.235109         1.264094        -1.931929
 O         1.755174        -1.295672         0.808097
 H        -0.844570        -0.145373         0.502717
 H        -0.157265         1.058330        -0.770452
 H        -0.131647        -0.675419        -1.163196
 H         1.899619         2.023080         1.130729
 H         1.941774         0.689814         2.279052
 H         4.356641         0.756193         0.570540
 H         3.756024        -1.618345         1.268226
 H         4.123103        -1.043691        -1.683834
 H         2.583997        -1.951193        -1.621603
 H         1.330070         1.188894        -2.313919
