19
Iteration:  3986charge 0 multiplicity 1
 C        -0.047255         0.067670        -0.263069
 C         1.356564         0.048365         0.151424
 C         2.036114         0.901028         1.123564
 C         3.307501         0.422750         0.463365
 C         3.130498        -1.159535         0.471196
 C         3.152027        -1.085183        -1.166967
 C         2.446089         0.203244        -0.927872
 O         2.198296         1.265617        -1.798387
 O         1.781630        -1.269578         0.831361
 H        -0.818289        -0.122546         0.471315
 H        -0.323376         1.084047        -0.724556
 H        -0.384990        -0.686645        -1.164627
 H         1.931983         1.954367         0.968847
 H         2.067522         0.802464         2.209642
 H         4.191954         1.092031         0.437088
 H         3.752837        -1.814617         1.071720
 H         4.180076        -1.097875        -1.535459
 H         2.736006        -1.793310        -1.857583
 H         2.927665         1.398291        -2.419025
