19
Iteration:  2955charge 0 multiplicity 1
 C        -0.112928        -0.015440        -0.345896
 C         1.325055         0.075517         0.185957
 C         2.130895         0.981000         1.318962
 C         3.319589         0.399949         0.512860
 C         3.113485        -1.124642         0.391845
 C         3.170131        -1.041833        -1.161779
 C         2.415722         0.244674        -0.800001
 O         2.316121         1.165024        -1.875890
 O         1.742291        -1.266374         0.669507
 H        -0.786404        -0.461510         0.486943
 H        -0.789739         0.740283        -0.952707
 H        -0.042038        -0.724976        -1.216578
 H         2.088533         2.050759         1.115714
 H         1.773451         0.831078         2.292532
 H         4.396735         0.801703         0.537731
 H         3.474669        -1.946422         1.073908
 H         4.139591        -0.663034        -1.702918
 H         2.681562        -1.797179        -1.827772
 H         2.312623         2.090917        -1.532784
