19
Iteration:  1288
 C        -0.130897        -0.002446        -0.232769
 C         1.316290         0.024357         0.102236
 C         1.958709         0.916299         1.160603
 C         3.242993         0.463423         0.522296
 C         3.093535        -1.090292         0.495934
 C         3.332320        -1.117343        -1.007803
 C         2.614294         0.261738        -0.852751
 O         2.315725         1.264488        -1.770998
 O         1.616925        -1.257602         0.482659
 H        -0.607092         0.000396         0.782551
 H        -0.443216         0.757641        -0.991923
 H        -0.279890        -1.004182        -0.807192
 H         1.771418         1.970219         1.013006
 H         1.717942         0.586915         2.160439
 H         4.198212         0.950493         0.481899
 H         3.620855        -1.809435         1.088033
 H         4.446640        -1.059821        -1.188048
 H         2.995552        -1.983624        -1.595187
 H         3.046759         1.551472        -2.390961
