19
Iteration:  3533charge 0 multiplicity 1
 C        -0.171895         0.045309        -0.032562
 C         1.298186        -0.095776         0.210692
 C         1.888594         0.995313         1.064423
 C         3.261764         0.507079         0.476361
 C         3.096105        -1.161695         0.439590
 C         3.151747        -1.085645        -1.224225
 C         2.555917         0.305654        -0.873881
 O         2.530922         1.308747        -1.869275
 O         1.775747        -1.370118         0.682063
 H        -0.751002        -0.078697         0.965675
 H        -0.468905         0.971095        -0.406550
 H        -0.496873        -0.772865        -0.552498
 H         1.634517         1.965288         0.699905
 H         1.847119         1.020743         2.120642
 H         4.213621         1.121296         0.670222
 H         3.744669        -1.829834         1.005544
 H         4.112365        -0.832599        -1.657080
 H         2.641371        -1.875249        -1.812914
 H         2.186177         0.704912        -2.568062
