19
Iteration:   264charge 0 multiplicity 1
 C        -0.162567         0.093924        -0.160465
 C         1.321919         0.068747         0.204635
 C         2.133838         1.016851         1.155998
 C         3.334595         0.293507         0.547031
 C         2.998837        -1.152975         0.460658
 C         3.158267        -1.083430        -1.090478
 C         2.606854         0.337165        -0.862634
 O         2.504465         1.250811        -1.958661
 O         1.572549        -1.321477         0.582425
 H        -0.812921        -0.166734         0.795081
 H        -0.628950         1.038785        -0.564039
 H        -0.348915        -0.688077        -0.933009
 H         1.902934         2.009462         0.790071
 H         1.998628         0.862241         2.259112
 H         4.280318         0.408586         0.904261
 H         3.691962        -1.832260         1.064386
 H         4.210253        -1.065481        -1.294955
 H         2.723187        -1.857440        -1.687509
 H         1.582166         1.075286        -2.183893
