19
Iteration:   285charge 0 multiplicity 1
 C        -0.173265         0.192010        -0.157368
 C         1.276970         0.032922         0.140198
 C         2.036362         0.990407         1.112988
 C         3.281556         0.359502         0.462911
 C         3.081133        -1.263232         0.436656
 C         3.268245        -1.168206        -1.111917
 C         2.495507         0.168302        -0.921672
 O         2.499435         1.315033        -1.783697
 O         1.648624        -1.238755         0.686286
 H        -0.806004         0.006756         0.807142
 H        -0.381906         1.259359        -0.440938
 H        -0.471520        -0.418559        -1.013798
 H         2.018996         2.047265         0.865455
 H         1.768260         0.844057         2.228918
 H         4.124485         0.929897         0.444204
 H         3.544061        -2.170898         0.984518
 H         4.379535        -1.007667        -1.388379
 H         2.875188        -2.006646        -1.748792
 H         1.912175         1.091311        -2.523945
