19
Iteration:  1502charge 0 multiplicity 1
 C        -0.044709         0.037078        -0.427925
 C         1.296549        -0.031608         0.048573
 C         1.952190         0.926215         1.054448
 C         3.303561         0.458123         0.533564
 C         3.084523        -1.114131         0.480212
 C         3.235854        -1.100580        -1.039004
 C         2.513927         0.217828        -0.817347
 O         2.251590         1.258121        -1.652250
 O         1.749410        -1.274395         0.661702
 H        -0.844560        -0.155661         0.385920
 H        -0.234636         1.200899        -0.687542
 H        -0.213514        -0.462542        -1.355967
 H         1.762019         1.968426         0.901186
 H         1.897431         0.622291         2.144947
 H         4.220059         0.920898         0.702193
 H         3.762321        -1.668664         1.127209
 H         4.266046        -0.928902        -1.360590
 H         2.728805        -1.837435        -1.644023
 H         3.055298         1.416834        -2.154756
