19
Iteration:  3807charge 0 multiplicity 1
 C        -0.022109         0.180954        -0.302057
 C         1.342487        -0.034655         0.183153
 C         2.026930         0.969621         1.181493
 C         3.385685         0.523113         0.447976
 C         3.277038        -1.149407         0.479215
 C         3.129221        -1.157664        -1.165363
 C         2.499274         0.239192        -0.827060
 O         2.093173         1.101559        -1.816983
 O         1.722416        -1.304526         0.659706
 H        -0.773904         0.095362         0.630481
 H        -0.168971         1.174340        -0.701099
 H        -0.396346        -0.389879        -1.155625
 H         1.765536         2.015353         1.006646
 H         1.978612         0.716782         2.180120
 H         4.216872         1.143629         0.729271
 H         3.951641        -1.780845         1.108277
 H         4.010969        -0.973988        -1.650031
 H         2.429639        -1.842579        -1.489823
 H         2.793649         1.757635        -1.917294
