19
Iteration:   733charge 0 multiplicity 1
 C        -0.083811         0.078155        -0.235281
 C         1.302187         0.112758         0.113965
 C         2.007075         1.038433         1.199298
 C         3.307497         0.351755         0.475826
 C         3.069477        -1.225040         0.372356
 C         3.301149        -1.143895        -1.085465
 C         2.528371         0.243697        -0.896470
 O         2.314735         1.276772        -1.756455
 O         1.611561        -1.305119         0.657405
 H        -0.595608         0.123789         0.815867
 H        -0.356775         1.049777        -0.674048
 H        -0.256997        -0.834771        -0.858906
 H         1.883511         2.079981         0.872090
 H         1.611100         0.902861         2.184477
 H         4.380761         0.680672         0.518251
 H         3.589473        -1.927562         1.040700
 H         4.275275        -0.836690        -1.326514
 H         3.032169        -1.972340        -1.595643
 H         2.949129         1.252106        -2.526545
