19
Iteration:  1730
 C        -0.215472        -0.035507        -0.219201
 C         1.304349         0.038714         0.065746
 C         1.859339         0.953136         1.158348
 C         3.249204         0.469632         0.558255
 C         3.100858        -1.131916         0.421682
 C         3.320120        -1.139714        -1.059155
 C         2.579721         0.275290        -0.877163
 O         2.405368         1.311709        -1.809244
 O         1.698968        -1.305268         0.574418
 H        -0.727992        -0.461554         0.769668
 H        -0.495681         1.071182        -0.468360
 H        -0.335541        -0.728992        -0.992411
 H         1.765212         2.017602         0.967699
 H         1.705662         0.813606         2.232520
 H         4.220674         0.843482         0.785239
 H         3.689196        -1.762230         1.125671
 H         4.396440        -1.025772        -1.147427
 H         3.012995        -1.996754        -1.632188
 H         3.241254         1.507587        -2.278082
