19
Iteration:  1945
 C        -0.119213        -0.003289        -0.294228
 C         1.301649         0.009712         0.098793
 C         1.993817         0.972382         1.102588
 C         3.279576         0.457821         0.571167
 C         3.094889        -1.186406         0.487809
 C         3.267627        -1.060314        -1.031453
 C         2.544319         0.258574        -0.861907
 O         2.301246         1.342132        -1.772294
 O         1.702777        -1.308410         0.590094
 H        -0.595918        -0.183843         0.598025
 H        -0.513901         0.927554        -0.631707
 H        -0.405373        -0.941787        -1.033234
 H         1.623198         1.957189         0.950031
 H         1.807107         0.784639         2.174590
 H         4.327582         0.626102         0.548551
 H         3.631038        -1.978115         1.115268
 H         4.432016        -0.915911        -1.187034
 H         2.896615        -1.843380        -1.786040
 H         2.901448         1.188099        -2.510521
