19
Iteration:   571
 C        -0.042362         0.176954        -0.206358
 C         1.290338         0.031169         0.260254
 C         2.055723         0.918627         1.235057
 C         3.247532         0.473827         0.471421
 C         3.028014        -1.154319         0.385957
 C         3.102820        -1.133948        -1.134075
 C         2.544661         0.304881        -0.871326
 O         2.523500         1.159004        -1.938879
 O         1.666069        -1.333576         0.669569
 H        -0.756345         0.062065         0.599620
 H        -0.217600         1.136371        -0.543634
 H        -0.216029        -0.536013        -0.974699
 H         1.859529         2.019688         1.042793
 H         2.020657         0.557153         2.272667
 H         4.266333         0.757436         0.658744
 H         3.602583        -1.773973         1.041484
 H         4.152967        -1.081410        -1.674938
 H         2.427772        -1.821421        -1.788776
 H         1.638561         1.596616        -1.824808
