19
Iteration:  3801
 C        -0.103012         0.174815        -0.298251
 C         1.425675        -0.026183         0.166336
 C         2.023385         0.949451         1.160990
 C         3.376932         0.504403         0.460517
 C         3.280464        -1.170199         0.510015
 C         3.093333        -1.160763        -1.145930
 C         2.523338         0.261042        -0.837688
 O         2.054679         1.133185        -1.846871
 O         1.751148        -1.271712         0.690571
 H        -0.765426         0.101555         0.464199
 H         0.023571         1.208770        -0.743608
 H        -0.346020        -0.451509        -1.249894
 H         1.798671         2.044816         1.205004
 H         1.938259         0.553311         2.260064
 H         4.261977         1.087503         0.826242
 H         3.822545        -1.919688         1.082349
 H         4.146551        -0.953689        -1.679833
 H         2.556608        -2.089902        -1.625075
 H         2.745303         1.771592        -2.036061
