19
Iteration:  4565charge 0 multiplicity 1
 C        -0.265019         0.007496         0.028281
 C         1.272000        -0.030518         0.162567
 C         1.963265         0.936502         1.138739
 C         3.259888         0.503078         0.504426
 C         3.132595        -1.131309         0.425510
 C         3.215574        -1.114597        -1.207842
 C         2.575592         0.262463        -0.910101
 O         2.517034         1.312205        -1.893952
 O         1.737302        -1.304780         0.643749
 H        -0.876521        -0.116381         0.900633
 H        -0.494871         0.915922        -0.478298
 H        -0.373500        -0.783110        -0.794205
 H         1.868047         2.016011         0.791313
 H         1.843346         0.997782         2.233746
 H         4.241501         0.957530         0.525915
 H         3.711667        -1.936898         0.964317
 H         4.161365        -0.795206        -1.535725
 H         2.709377        -1.967630        -1.641685
 H         1.827775         0.933063        -2.468613
