19
Iteration:  3616
 C        -0.085770         0.125329        -0.292944
 C         1.318936         0.015542         0.251090
 C         2.012142         0.994053         1.179143
 C         3.388424         0.466474         0.534769
 C         3.257992        -1.201178         0.426021
 C         3.154781        -1.094129        -1.140606
 C         2.352336         0.249380        -0.865951
 O         2.306356         1.171918        -1.828095
 O         1.780415        -1.309663         0.696199
 H        -0.903343        -0.253488         0.318834
 H        -0.526844         1.033038        -0.929259
 H        -0.244342        -0.708418        -1.216870
 H         2.097626         2.089231         0.872001
 H         1.614462         0.984980         2.293229
 H         4.352483         0.994054         0.579121
 H         3.994867        -1.837121         0.920363
 H         3.953535        -0.760262        -1.795821
 H         2.545373        -1.910820        -1.604080
 H         1.475398         1.436210        -2.221551
