19
Iteration:  3918charge 0 multiplicity 1
 C        -0.171357         0.125949        -0.129615
 C         1.293938        -0.028498         0.140542
 C         2.011384         0.908204         1.195288
 C         3.279903         0.497624         0.461025
 C         3.174242        -1.181395         0.412683
 C         3.229402        -1.107461        -1.238341
 C         2.522922         0.202308        -0.912962
 O         2.284189         1.234757        -1.869485
 O         1.733883        -1.228533         0.802698
 H        -0.727868        -0.149613         0.822972
 H        -0.345868         1.099056        -0.658974
 H        -0.436136        -0.639775        -0.979940
 H         1.784290         1.985090         1.139540
 H         1.838477         0.688729         2.215119
 H         4.153263         1.172855         0.471358
 H         3.688368        -1.961268         0.987664
 H         4.266695        -1.015207        -1.554731
 H         2.857350        -1.888647        -1.848954
 H         3.067105         1.144153        -2.470456
