19
Iteration:  3400
 C        -0.265246        -0.060068        -0.051467
 C         1.249393        -0.026639         0.217173
 C         2.047835         0.974332         1.174819
 C         3.303957         0.466154         0.487836
 C         3.072737        -1.178675         0.413527
 C         3.247559        -1.093128        -1.131982
 C         2.533163         0.342053        -0.881273
 O         2.523263         1.346005        -1.960086
 O         1.661728        -1.294890         0.640280
 H        -0.644674        -0.390936         0.999059
 H        -0.766283         0.882174        -0.466683
 H        -0.535868        -0.811918        -0.688623
 H         1.891233         1.960185         0.899145
 H         1.876930         0.885177         2.220419
 H         4.357975         0.898817         0.589700
 H         3.667632        -1.906421         1.020880
 H         4.278218        -0.880218        -1.417477
 H         2.853914        -1.868849        -1.800733
 H         2.316780         0.867834        -2.790786
