19
Iteration:   606
 C        -0.216338         0.205869        -0.198143
 C         1.260018         0.078185         0.119981
 C         2.057466         0.892579         1.101611
 C         3.276797         0.415470         0.450660
 C         3.075611        -1.210210         0.436312
 C         3.167756        -1.147646        -1.128854
 C         2.500950         0.209783        -0.838705
 O         2.431792         1.192484        -1.846505
 O         1.751493        -1.270332         0.702298
 H        -0.645332        -0.258175         0.641754
 H        -0.421711         1.219302        -0.363830
 H        -0.537310        -0.397405        -1.070943
 H         2.043917         2.013659         1.026435
 H         1.826395         0.751522         2.159710
 H         4.354661         0.762268         0.669624
 H         3.687828        -1.774568         1.141633
 H         4.187690        -0.839893        -1.592684
 H         2.599833        -2.007985        -1.715699
 H         3.027028         1.975857        -1.713164
