19
Iteration:  2590charge 0 multiplicity 1
 C        -0.203540        -0.025988        -0.083314
 C         1.269182         0.038796         0.057682
 C         1.974042         0.997137         1.059420
 C         3.241478         0.301338         0.550703
 C         3.072862        -1.171089         0.428320
 C         3.360223        -1.005436        -1.090222
 C         2.488832         0.281150        -0.860374
 O         2.422292         1.342141        -1.816026
 O         1.748275        -1.307375         0.619141
 H        -0.788160        -0.359401         0.862855
 H        -0.605200         0.902991        -0.310982
 H        -0.771128        -0.660336        -0.811908
 H         1.869482         2.050192         0.743156
 H         1.563062         0.734855         2.036207
 H         4.256428         0.785380         0.636152
 H         3.756318        -1.723539         1.123997
 H         4.427858        -0.706485        -1.194291
 H         3.061179        -1.843241        -1.899756
 H         2.591982         0.811696        -2.588658
