19
Iteration:  3204charge 0 multiplicity 1
 C        -0.245354         0.008990         0.074430
 C         1.266453         0.038646         0.087917
 C         2.009815         1.004460         1.136151
 C         3.269026         0.402265         0.447635
 C         3.145319        -1.138761         0.417531
 C         3.247745        -1.137614        -1.143503
 C         2.459998         0.259774        -0.902770
 O         2.580850         1.224168        -1.876408
 O         1.671394        -1.292529         0.565898
 H        -0.792933         0.038502         1.130451
 H        -0.546088         1.068862        -0.267548
 H        -0.654908        -0.710666        -0.502722
 H         1.874527         2.075949         0.821251
 H         1.725926         0.786914         2.263360
 H         4.164411         1.039926         0.430687
 H         3.821924        -1.827020         0.988898
 H         4.311087        -1.003750        -1.463597
 H         2.915436        -1.997118        -1.729713
 H         1.842656         1.897128        -1.928163
