19
Iteration:  4915charge 0 multiplicity 1
 C        -0.181957         0.004887        -0.191107
 C         1.308941        -0.026532         0.187290
 C         2.008226         0.973421         1.227662
 C         3.235005         0.505957         0.364437
 C         3.168500        -1.088344         0.410754
 C         3.120928        -1.109094        -1.099962
 C         2.520773         0.270074        -0.959918
 O         2.413443         1.191056        -1.938484
 O         1.787998        -1.320339         0.820388
 H        -0.769776        -0.213457         0.676959
 H        -0.493798         0.954111        -0.641048
 H        -0.380873        -0.721519        -1.063483
 H         1.690920         1.966579         1.007176
 H         1.869657         0.730518         2.248459
 H         4.314473         0.881792         0.478603
 H         3.922585        -1.698620         0.884860
 H         4.117671        -1.111343        -1.555855
 H         2.344505        -1.663862        -1.611721
 H         2.526421         2.108000        -1.611453
