19
Iteration:  2233
 C        -0.296076        -0.076896        -0.102954
 C         1.204858         0.010877         0.065968
 C         1.941668         0.966794         1.112671
 C         3.282906         0.405997         0.524113
 C         3.158311        -1.138688         0.438433
 C         3.341033        -1.084372        -1.062938
 C         2.517279         0.254618        -0.884898
 O         2.570934         1.389690        -1.805602
 O         1.680466        -1.311138         0.606488
 H        -0.837767        -0.249173         0.885248
 H        -0.713962         0.998996        -0.393154
 H        -0.598275        -0.682734        -0.941145
 H         1.718303         2.049743         0.935026
 H         1.759129         0.729356         2.139032
 H         4.244703         0.985578         0.422310
 H         3.613099        -1.878173         1.026092
 H         4.326059        -0.733181        -1.468537
 H         2.986957        -1.905766        -1.727223
 H         2.213242         0.906862        -2.581273
