19
Iteration:  1314
 C        -0.182215         0.094439        -0.394843
 C         1.298052        -0.022795         0.185890
 C         1.926204         0.944056         1.199437
 C         3.223351         0.412705         0.617855
 C         3.141377        -1.141348         0.499195
 C         3.219070        -1.000742        -1.137796
 C         2.541249         0.287616        -0.850466
 O         2.353365         1.223785        -1.899920
 O         1.788711        -1.371000         0.687236
 H        -0.809337        -0.085744         0.632929
 H        -0.301822         1.072631        -0.847813
 H        -0.337340        -0.651621        -1.197401
 H         1.734801         2.018884         0.881293
 H         1.621815         0.801950         2.260088
 H         4.281185         0.758952         0.941078
 H         3.884114        -1.859316         0.927167
 H         4.185348        -0.862761        -1.462309
 H         2.786788        -1.821616        -1.697662
 H         3.197392         1.626389        -2.269699
