19
Iteration:  4493
 C        -0.093674        -0.009218        -0.224933
 C         1.319629         0.005302         0.255887
 C         2.066826         0.990170         1.166584
 C         3.274188         0.409996         0.547379
 C         3.128339        -1.163929         0.438186
 C         3.116462        -1.071913        -1.170895
 C         2.537497         0.321060        -0.890372
 O         2.361750         1.273022        -1.877574
 O         1.752380        -1.318577         0.659985
 H        -0.752972        -0.165380         0.679980
 H        -0.424497         0.967427        -0.592998
 H        -0.295531        -0.790793        -0.963709
 H         1.912241         1.979152         0.725994
 H         2.050739         1.090379         2.235902
 H         4.187783         0.999277         0.684818
 H         3.615853        -1.803039         1.076865
 H         4.130308        -0.820721        -1.560194
 H         2.452186        -1.821484        -1.662012
 H         1.639572         0.851039        -2.409676
