19
Iteration:  4940charge 0 multiplicity 1
 C        -0.095591        -0.008069        -0.259323
 C         1.357342         0.023813         0.150836
 C         2.068904         1.088665         1.138856
 C         3.350964         0.354464         0.484449
 C         3.176344        -1.143460         0.424658
 C         3.201647        -1.175124        -1.098798
 C         2.491963         0.271661        -0.865521
 O         2.202982         1.192974        -1.864327
 O         1.696796        -1.258830         0.731307
 H        -0.816220        -0.201668         0.567902
 H        -0.358399         0.969109        -0.774698
 H        -0.203203        -0.700063        -1.036999
 H         1.861739         2.158917         0.929906
 H         1.962296         0.821500         2.242723
 H         4.308534         0.928880         0.377894
 H         3.841805        -1.742263         1.079626
 H         4.223270        -0.763828        -1.403752
 H         2.782298        -1.924703        -1.722648
 H         1.905339         2.090621        -1.639533
