19
Iteration:   301charge 0 multiplicity 1
 C        -0.154506         0.280651        -0.194380
 C         1.294228        -0.004781         0.067930
 C         1.967784         0.933380         1.029577
 C         3.263789         0.426560         0.390221
 C         3.116695        -1.149714         0.417420
 C         3.146909        -1.201414        -1.120250
 C         2.531251         0.162277        -0.879546
 O         2.507593         1.254254        -1.628001
 O         1.708006        -1.307420         0.724492
 H        -0.672828         0.062126         0.737956
 H        -0.230992         1.338710        -0.427875
 H        -0.628322        -0.381111        -0.986133
 H         1.700551         2.013374         0.989924
 H         1.832514         0.713467         2.079261
 H         4.439445         0.639500         0.287386
 H         3.714636        -1.631864         1.143711
 H         4.101198        -0.952321        -1.496027
 H         2.621493        -1.941939        -1.682777
 H         2.209363         1.157934        -2.520070
