19
Iteration:  3107
 C        -0.018789         0.082603        -0.206520
 C         1.337759        -0.045589         0.197017
 C         2.025498         0.953798         1.062338
 C         3.277186         0.494311         0.406112
 C         3.115719        -1.202945         0.465404
 C         3.160387        -1.129317        -1.120379
 C         2.465249         0.228904        -0.940445
 O         2.270890         1.294662        -1.851227
 O         1.697220        -1.308114         0.748284
 H        -0.838984        -0.330726         0.519527
 H        -0.211361         1.204476        -0.355513
 H        -0.103437        -0.512977        -1.085427
 H         1.968029         2.092371         1.052019
 H         1.984050         0.569976         2.197346
 H         4.347523         0.746919         0.602573
 H         3.637430        -1.843874         1.206503
 H         4.239447        -0.850270        -1.370938
 H         2.820705        -1.954104        -1.805730
 H         2.826347         2.042553        -1.487173
