19
Iteration:  1757charge 0 multiplicity 1
 C        -0.214448        -0.102858        -0.243564
 C         1.294816         0.059940         0.138542
 C         1.920276         0.908017         1.240447
 C         3.307125         0.432951         0.628116
 C         3.088234        -1.128142         0.491417
 C         3.168831        -0.963112        -1.138738
 C         2.575183         0.363936        -0.827193
 O         2.469929         1.187800        -1.953903
 O         1.667223        -1.281836         0.546604
 H        -0.711868        -0.263549         0.611283
 H        -0.548631         0.708214        -0.757213
 H        -0.167706        -1.044435        -0.898774
 H         1.924993         2.018985         1.220434
 H         1.759547         0.649369         2.289025
 H         4.323567         0.825712         0.956765
 H         3.557300        -1.746400         1.240128
 H         4.319098        -0.721961        -1.197212
 H         2.847927        -1.700878        -1.953746
 H         3.339449         1.466685        -2.276650
