19
Iteration:   728charge 0 multiplicity 1
 C        -0.112604         0.097301        -0.220339
 C         1.322598         0.119358         0.134096
 C         1.999767         1.043938         1.172876
 C         3.314555         0.357560         0.511168
 C         3.073159        -1.219252         0.347999
 C         3.281772        -1.124648        -1.097461
 C         2.538638         0.244434        -0.867287
 O         2.288204         1.221783        -1.773201
 O         1.645544        -1.296609         0.639194
 H        -0.649155         0.092323         0.660813
 H        -0.349087         1.013485        -0.811575
 H        -0.209252        -0.789624        -0.813118
 H         1.981333         2.147214         0.997259
 H         1.524078         0.838480         2.174469
 H         4.317339         0.732432         0.618390
 H         3.590820        -1.902500         1.010455
 H         4.418118        -0.970650        -1.284205
 H         2.772625        -1.981312        -1.783380
 H         3.164449         1.327100        -2.203269
