19
Iteration:   576charge 0 multiplicity 1
 C        -0.068737         0.199959        -0.193881
 C         1.280228         0.010207         0.269343
 C         2.066810         0.921724         1.230208
 C         3.219613         0.476834         0.465260
 C         3.057458        -1.145674         0.387453
 C         3.119091        -1.130256        -1.148893
 C         2.516172         0.268206        -0.889061
 O         2.529358         1.168195        -1.934881
 O         1.665459        -1.326208         0.672711
 H        -0.822437        -0.068750         0.591678
 H        -0.160533         1.284438        -0.653972
 H        -0.182884        -0.572458        -1.036021
 H         1.901536         1.970639         1.155934
 H         1.991499         0.529175         2.250733
 H         4.308573         0.768292         0.664347
 H         3.745690        -1.802762         0.985910
 H         4.057278        -1.182544        -1.568926
 H         2.495121        -1.880747        -1.592304
 H         1.791328         1.801303        -1.857980
