19
Iteration:  4137charge 0 multiplicity 1
 C        -0.038116        -0.020367        -0.352910
 C         1.361084         0.074999         0.211794
 C         2.159443         1.029285         1.172323
 C         3.352038         0.427388         0.483766
 C         3.166673        -1.186534         0.456274
 C         3.156577        -1.117600        -1.178607
 C         2.460587         0.242730        -0.787242
 O         2.103119         1.270325        -1.786392
 O         1.686897        -1.278473         0.724649
 H        -0.753306        -0.271823         0.339609
 H        -0.327330         0.845653        -0.996599
 H         0.071841        -0.776237        -1.145268
 H         1.775158         2.015930         0.805147
 H         2.016562         0.790612         2.281441
 H         4.416729         0.788716         0.515515
 H         3.726707        -1.846578         1.060129
 H         4.223958        -0.802000        -1.453072
 H         2.506232        -1.702534        -1.785995
 H         2.798224         1.226519        -2.492269
