19
Iteration:  4124charge 0 multiplicity 1
 C        -0.046856         0.027991        -0.406921
 C         1.338687        -0.029164         0.221085
 C         2.107125         0.966536         1.195580
 C         3.325364         0.413039         0.478027
 C         3.071835        -1.176170         0.404227
 C         3.116056        -1.043242        -1.097274
 C         2.569719         0.322232        -0.924797
 O         2.083015         1.226701        -1.812919
 O         1.780877        -1.291238         0.811494
 H        -0.848814        -0.256483         0.294719
 H        -0.226045         1.112008        -0.694001
 H        -0.081281        -0.711089        -1.113891
 H         2.174019         2.093568         0.900642
 H         2.097717         0.991909         2.322109
 H         4.355522         0.821555         0.749057
 H         3.746340        -1.873515         0.937437
 H         4.171000        -1.044848        -1.525624
 H         2.739468        -1.891446        -1.693497
 H         2.779029         1.548443        -2.391442
