19
Iteration:  4413charge 0 multiplicity 1
 C        -0.187678         0.035188        -0.072032
 C         1.347755        -0.023571         0.130970
 C         2.030008         1.068375         1.133911
 C         3.248126         0.440234         0.496017
 C         3.148914        -1.176059         0.375264
 C         3.276514        -1.068931        -1.125727
 C         2.505720         0.254552        -0.912348
 O         2.406728         1.220782        -1.786946
 O         1.686404        -1.317855         0.652742
 H        -0.722888        -0.267960         0.799111
 H        -0.490699         0.982540        -0.476653
 H        -0.324472        -0.757260        -0.923419
 H         1.921660         2.062173         0.566696
 H         1.819157         1.282225         2.228692
 H         4.257201         0.910069         0.437478
 H         3.649431        -1.826043         1.202456
 H         4.212605        -1.070206        -1.673315
 H         2.704592        -1.781986        -1.805470
 H         1.582976         1.194298        -2.322878
