19
Iteration:   107
 C        -0.270263         0.189501        -0.234327
 C         1.292075         0.070928         0.084468
 C         1.979271         0.926082         1.119545
 C         3.242967         0.400581         0.506954
 C         3.117949        -1.206159         0.438333
 C         3.161945        -1.142842        -1.072814
 C         2.535696         0.273338        -0.850659
 O         2.578801         1.216171        -1.863171
 O         1.769421        -1.329186         0.715872
 H        -0.734220         0.007191         0.746465
 H        -0.476359         1.210940        -0.678854
 H        -0.608182        -0.638001        -0.955060
 H         2.081742         2.050076         0.862478
 H         1.802840         0.734734         2.175331
 H         4.163958         1.103179         0.486202
 H         3.682245        -1.898379         0.968168
 H         4.157452        -1.080042        -1.614597
 H         2.467890        -1.925435        -1.497694
 H         1.713679         1.635393        -1.840121
