19
Iteration:  1364
 C        -0.163464        -0.016084        -0.388980
 C         1.339564         0.042686         0.114582
 C         2.015343         0.985194         1.178952
 C         3.321699         0.388809         0.515953
 C         3.105896        -1.121423         0.493342
 C         3.317062        -1.163328        -1.015308
 C         2.555420         0.313555        -0.858537
 O         2.204322         1.325712        -1.746552
 O         1.658815        -1.327807         0.567476
 H        -0.768259        -0.468631         0.311227
 H        -0.449098         1.016154        -0.600100
 H         0.016502        -0.618488        -1.334611
 H         2.164302         2.038889         0.898719
 H         1.770503         0.908047         2.222369
 H         4.288687         0.764512         0.848088
 H         3.720954        -1.570487         1.247917
 H         4.473736        -1.285277        -1.354663
 H         2.636018        -1.997581        -1.392953
 H         2.951329         1.629208        -2.267246
