19
Iteration:  1303
 C        -0.135242         0.024829        -0.328116
 C         1.298586        -0.029326         0.074541
 C         1.978771         0.928667         1.184088
 C         3.323151         0.459480         0.603835
 C         3.157018        -1.141575         0.506407
 C         3.268686        -1.029492        -1.025121
 C         2.511460         0.316565        -0.859800
 O         2.315786         1.266257        -1.891278
 O         1.672867        -1.371817         0.593346
 H        -0.954005         0.024376         0.558856
 H        -0.359817         0.968344        -0.788565
 H        -0.519419        -0.798433        -0.954754
 H         1.811250         2.022950         0.915652
 H         1.801917         0.749273         2.264530
 H         4.335688         0.924385         0.920411
 H         3.614999        -1.814667         1.267580
 H         4.186336        -0.834769        -1.453646
 H         2.701225        -1.801217        -1.545379
 H         3.255743         1.429933        -2.099528
