19
Iteration:  3059
 C        -0.168310        -0.045932         0.017012
 C         1.313861         0.031765         0.104718
 C         1.988437         0.920467         1.166257
 C         3.289535         0.466116         0.559888
 C         3.058684        -1.150213         0.412809
 C         3.197697        -1.063948        -1.142260
 C         2.516450         0.304323        -0.944770
 O         2.494940         1.309178        -1.940127
 O         1.676210        -1.279376         0.630165
 H        -0.641603        -0.116870         0.987937
 H        -0.482407         0.874662        -0.347867
 H        -0.533856        -0.913714        -0.534645
 H         1.655290         1.950754         0.860413
 H         1.714012         0.673283         2.271269
 H         4.232665         0.942007         0.597850
 H         3.492080        -2.003207         0.942992
 H         4.265692        -1.012427        -1.331196
 H         2.735139        -1.855033        -1.708077
 H         2.995679         0.975319        -2.674906
