19
Iteration:  4928
 C        -0.107233        -0.001859        -0.251155
 C         1.289319         0.005864         0.223528
 C         2.077454         0.894128         1.111560
 C         3.329431         0.506456         0.437979
 C         3.133976        -1.137542         0.461732
 C         3.164507        -1.106879        -1.111183
 C         2.443211         0.218192        -0.901325
 O         2.287805         1.232166        -1.935289
 O         1.766220        -1.215307         0.762616
 H        -0.832721        -0.246872         0.529668
 H        -0.365146         1.028098        -0.631853
 H        -0.195113        -0.810184        -0.959657
 H         1.960649         1.953344         0.873777
 H         1.929429         0.784926         2.204582
 H         4.384044         0.944239         0.608758
 H         3.596005        -1.918989         1.075958
 H         4.214107        -0.982479        -1.545224
 H         2.802222        -2.022290        -1.513876
 H         2.197907         1.994000        -1.344364
