19
Iteration:  3427
 C        -0.145675         0.046188        -0.184215
 C         1.308720         0.021247         0.183737
 C         2.031401         0.962524         1.170580
 C         3.257344         0.514672         0.412890
 C         3.171472        -1.116392         0.443321
 C         3.218246        -1.177253        -1.123329
 C         2.444690         0.224649        -0.853151
 O         2.460823         1.243664        -1.789401
 O         1.692750        -1.298409         0.607747
 H        -0.644059        -0.419730         0.709971
 H        -0.524423         1.025181        -0.406292
 H        -0.470535        -0.589797        -1.158674
 H         1.747000         2.086801         1.020884
 H         1.971939         0.736886         2.279655
 H         4.214164         0.985889         0.444757
 H         3.848010        -1.639464         1.129064
 H         4.133412        -0.818920        -1.645174
 H         2.777959        -2.032967        -1.669304
 H         1.587634         1.367378        -2.202334
