19
Iteration:  1084charge 0 multiplicity 1
 C        -0.211767         0.019105        -0.247416
 C         1.276388        -0.031890         0.101827
 C         1.903921         0.943525         1.081586
 C         3.282188         0.414719         0.632852
 C         3.159125        -1.198439         0.459164
 C         3.222804        -1.045095        -1.099747
 C         2.619519         0.255172        -0.869494
 O         2.438498         1.319215        -1.897130
 O         1.697276        -1.320371         0.675321
 H        -0.904859         0.256340         0.569435
 H        -0.428273         0.777927        -0.923395
 H        -0.512048        -0.923006        -0.740563
 H         1.724881         2.029658         0.692705
 H         1.532930         0.869216         2.108834
 H         4.382775         0.812097         0.828028
 H         3.752788        -1.878094         1.036947
 H         4.341516        -0.910405        -1.408014
 H         2.673791        -1.918501        -1.680682
 H         2.765537         2.147879        -1.449847
