19
Iteration:  3033
 C        -0.243355         0.025149        -0.077435
 C         1.252759         0.056390         0.180315
 C         2.063731         0.963355         1.161651
 C         3.258024         0.410295         0.484966
 C         3.100688        -1.137120         0.428295
 C         3.322002        -1.060620        -1.154807
 C         2.533740         0.255262        -0.936284
 O         2.470036         1.305539        -1.862039
 O         1.660834        -1.351012         0.652285
 H        -0.885038        -0.016578         0.754970
 H        -0.469598         0.991637        -0.633869
 H        -0.565766        -0.893542        -0.676429
 H         1.825342         1.987264         1.018825
 H         1.900997         0.706743         2.155251
 H         4.321310         0.868968         0.472334
 H         3.616976        -1.813822         1.122725
 H         4.384798        -0.811062        -1.291539
 H         2.873097        -1.849201        -1.807322
 H         1.982792         0.941852        -2.605657
