19
Iteration:   942charge 0 multiplicity 1
 C        -0.100255        -0.011843        -0.222774
 C         1.339789        -0.058933         0.090377
 C         1.895192         1.027325         1.097629
 C         3.224498         0.409183         0.560398
 C         3.049058        -1.218187         0.473222
 C         3.200247        -1.028148        -1.053756
 C         2.587374         0.278643        -0.868676
 O         2.548227         1.339307        -1.879139
 O         1.682589        -1.341619         0.632391
 H        -0.569433        -0.247052         0.780583
 H        -0.448912         1.003488        -0.174128
 H        -0.421784        -0.615437        -1.119946
 H         1.736545         2.041200         0.683898
 H         1.566725         0.882001         2.045804
 H         4.349519         0.701688         0.888639
 H         3.700747        -1.873063         1.053471
 H         4.295571        -0.992679        -1.300141
 H         2.646823        -1.799287        -1.660428
 H         1.635177         1.692740        -1.978739
