19
Iteration:  2214
 C        -0.163216        -0.078084        -0.181812
 C         1.287739         0.050963         0.178860
 C         1.965627         0.970439         1.225859
 C         3.217682         0.387884         0.582000
 C         3.062379        -1.150117         0.387783
 C         3.276947        -0.980582        -1.142742
 C         2.599671         0.332849        -0.896062
 O         2.472255         1.258032        -1.864273
 O         1.673361        -1.278683         0.607578
 H        -0.807268        -0.215000         0.847038
 H        -0.695636         0.709033        -0.674390
 H        -0.306580        -0.917565        -0.767123
 H         1.845485         1.960601         0.774787
 H         1.609299         0.799647         2.285816
 H         4.171104         0.724534         0.990295
 H         3.604381        -1.903667         1.017447
 H         4.434158        -0.866339        -1.338346
 H         2.870178        -1.776841        -1.867334
 H         2.511411         0.957899        -2.814388
