19
Iteration:   407
 C        -0.137298         0.234532        -0.219390
 C         1.304251        -0.024340         0.084975
 C         1.940753         0.971669         1.048826
 C         3.261809         0.377122         0.454376
 C         3.193437        -1.160718         0.474966
 C         3.135778        -1.105403        -1.167644
 C         2.566400         0.217744        -0.854847
 O         2.511362         1.236211        -1.701864
 O         1.692635        -1.334248         0.737242
 H        -0.729419         0.114654         0.745699
 H        -0.110514         1.296084        -0.283071
 H        -0.655975        -0.150900        -1.114723
 H         1.833571         1.928555         0.516412
 H         1.582914         0.767544         2.059378
 H         4.259491         0.680434         0.386671
 H         3.666580        -1.873106         1.113693
 H         4.034694        -1.064601        -1.864247
 H         2.508513        -1.942838        -1.579585
 H         1.701905         1.215897        -2.199019
