19
Iteration:  1210
 C        -0.117209        -0.013618        -0.415000
 C         1.275037         0.058124         0.079543
 C         1.961109         0.855369         1.227124
 C         3.297870         0.420224         0.529559
 C         3.149119        -1.111255         0.460773
 C         3.240262        -1.142277        -1.003713
 C         2.541142         0.279483        -0.868813
 O         2.299673         1.251523        -1.803922
 O         1.724267        -1.169018         0.668819
 H        -0.813481        -0.430299         0.365908
 H        -0.544087         1.030300        -0.862467
 H        -0.215622        -0.760083        -1.268093
 H         1.851616         1.891897         1.149681
 H         1.723123         0.404350         2.201710
 H         4.240796         0.807145         0.716064
 H         3.652603        -1.833992         1.119180
 H         4.259866        -0.951447        -1.461095
 H         2.710554        -1.831916        -1.638377
 H         3.105008         1.740827        -2.077910
