19
Iteration:    30charge 0 multiplicity 1
 C        -0.072470         0.206938        -0.288387
 C         1.302022         0.011261         0.215124
 C         1.947333         0.870286         1.267131
 C         3.235105         0.453669         0.477363
 C         3.131068        -1.153637         0.435625
 C         3.048476        -1.143961        -1.088582
 C         2.554697         0.280535        -0.908945
 O         2.519048         1.172403        -1.983824
 O         1.720751        -1.292494         0.724729
 H        -0.823887        -0.127947         0.467352
 H        -0.237566         1.284320        -0.662338
 H        -0.252353        -0.509929        -1.203143
 H         1.674697         1.968413         1.058719
 H         1.876347         0.482523         2.290158
 H         4.284814         0.920168         0.754692
 H         3.773827        -1.775342         1.015927
 H         4.049346        -1.284936        -1.548344
 H         2.353154        -1.863222        -1.544569
 H         2.241894         2.055125        -1.605609
