19
Iteration:   876
 C        -0.136353         0.144558        -0.350126
 C         1.278463        -0.101812         0.258016
 C         1.892230         0.963732         1.145517
 C         3.224620         0.406735         0.508441
 C         3.123716        -1.153909         0.381074
 C         3.240811        -1.116561        -1.090314
 C         2.630426         0.328606        -0.914185
 O         2.410208         1.348923        -1.761007
 O         1.740431        -1.380635         0.719132
 H        -0.984130         0.444085         0.401105
 H        -0.013668         1.052038        -0.901640
 H        -0.464567        -0.787922        -0.932827
 H         1.541063         1.885815         0.708092
 H         1.726355         0.854978         2.136708
 H         4.356218         0.784124         0.753525
 H         3.799966        -1.690466         1.068929
 H         4.261785        -1.287770        -1.400520
 H         2.627103        -1.798084        -1.610103
 H         2.222295         0.929913        -2.611891
