19
Iteration:  4378
 C        -0.203772         0.006800         0.035068
 C         1.274267        -0.004379         0.094461
 C         2.008957         0.883145         1.250562
 C         3.228236         0.488160         0.408250
 C         3.109666        -1.088116         0.402808
 C         3.253115        -1.067776        -1.117353
 C         2.522576         0.228138        -0.976032
 O         2.555167         1.321078        -1.967989
 O         1.688021        -1.303710         0.685896
 H        -0.753896        -0.031460         0.971522
 H        -0.676916         0.933649        -0.415915
 H        -0.633231        -0.919845        -0.546532
 H         1.712254         1.943906         1.154286
 H         1.961183         0.482665         2.332724
 H         4.152041         1.052833         0.397263
 H         3.653050        -1.665273         1.194186
 H         4.304189        -1.004500        -1.411205
 H         2.610975        -1.924040        -1.422615
 H         1.998984         1.042114        -2.728003
