19
Iteration:  3475
 C        -0.023445         0.067318        -0.331835
 C         1.360550        -0.015339         0.214082
 C         2.073014         1.047749         1.183089
 C         3.361328         0.430252         0.519651
 C         3.135675        -1.145476         0.439133
 C         3.183402        -1.056692        -1.112443
 C         2.491399         0.200448        -0.865986
 O         2.221401         1.247163        -1.804077
 O         1.687438        -1.338595         0.671487
 H        -0.762962        -0.197511         0.342990
 H        -0.228224         1.052765        -0.844260
 H        -0.052204        -0.606854        -1.142986
 H         1.887226         2.063581         0.823407
 H         1.961015         1.023027         2.286304
 H         4.334106         0.953723         0.374102
 H         3.709386        -2.006993         0.887010
 H         4.216436        -0.999127        -1.461686
 H         2.668497        -1.928358        -1.516379
 H         1.268693         1.302264        -1.975405
