19
Iteration:  3037charge 0 multiplicity 1
 C        -0.208451         0.026282        -0.072759
 C         1.277709         0.040079         0.193595
 C         2.038786         0.980894         1.169463
 C         3.234547         0.398996         0.431210
 C         3.071786        -1.165830         0.413226
 C         3.316232        -1.059488        -1.111985
 C         2.557294         0.257408        -0.924317
 O         2.474058         1.329663        -1.886172
 O         1.642513        -1.342311         0.651430
 H        -0.794046        -0.035185         0.872667
 H        -0.533987         0.889027        -0.542263
 H        -0.468215        -0.919618        -0.601502
 H         1.841864         2.081156         1.014197
 H         1.872912         0.570357         2.241661
 H         4.213600         0.791033         0.561271
 H         3.716404        -1.724564         1.093359
 H         4.323679        -0.752642        -1.340584
 H         2.929802        -1.772727        -1.824550
 H         2.106120         0.873931        -2.708140
