19
Iteration:  3487
 C        -0.081194        -0.005258        -0.326745
 C         1.329175         0.087770         0.224473
 C         2.108211         0.995238         1.207332
 C         3.289431         0.494425         0.397607
 C         3.147429        -1.200831         0.388840
 C         3.211620        -1.136279        -1.058461
 C         2.478175         0.271889        -0.794764
 O         2.287368         1.180644        -1.752104
 O         1.700178        -1.227972         0.597377
 H        -0.869173        -0.142775         0.401757
 H        -0.342692         1.021481        -0.727534
 H        -0.132571        -0.740557        -0.979570
 H         1.897162         2.010869         1.054395
 H         1.971800         0.689533         2.233353
 H         4.374328         0.848085         0.346073
 H         3.779217        -1.849373         1.059727
 H         4.191998        -0.888352        -1.426171
 H         2.739241        -1.864187        -1.725504
 H         1.323919         1.125578        -2.023750
