19
Iteration:  4254charge 0 multiplicity 1
 C        -0.067505        -0.002520        -0.145051
 C         1.352066         0.022102         0.157671
 C         2.000054         0.974823         1.196074
 C         3.261706         0.496500         0.503601
 C         3.144083        -1.197183         0.401279
 C         3.160785        -1.076919        -1.161646
 C         2.552827         0.314433        -0.909497
 O         2.357785         1.200521        -1.971540
 O         1.721999        -1.331089         0.795715
 H        -0.848859        -0.213794         0.704682
 H        -0.420341         1.049928        -0.613138
 H        -0.443339        -0.479805        -1.026755
 H         1.667614         2.005081         0.910265
 H         1.725199         0.720698         2.206474
 H         4.354895         0.781131         0.445313
 H         3.891394        -1.894749         0.842801
 H         4.120890        -0.712646        -1.576086
 H         2.683433        -1.865730        -1.722888
 H         1.677574         1.852154        -1.672425
