19
Iteration:  2101charge 0 multiplicity 1
 C        -0.196279        -0.035737        -0.171986
 C         1.279643         0.018195         0.106306
 C         1.980964         0.900567         1.201034
 C         3.251951         0.446940         0.542244
 C         3.097928        -1.099189         0.399861
 C         3.191757        -1.043120        -1.098370
 C         2.494726         0.314687        -0.859268
 O         2.459853         1.228255        -1.871118
 O         1.743591        -1.249207         0.610026
 H        -0.683304        -0.418385         0.695725
 H        -0.498274         1.028861        -0.569516
 H        -0.334878        -0.796847        -0.957395
 H         1.755671         1.976249         1.030092
 H         1.682926         0.473785         2.137012
 H         4.202662         1.016446         0.618227
 H         3.504034        -1.827759         1.072166
 H         4.328782        -0.996183        -1.284935
 H         2.702146        -1.889595        -1.675433
 H         3.400259         1.280008        -2.136395
