19
Iteration:  1691
 C        -0.118641         0.097955        -0.428005
 C         1.279171        -0.051919         0.099350
 C         1.942913         0.991862         1.099351
 C         3.257194         0.380219         0.578191
 C         3.182201        -1.139580         0.441097
 C         3.232689        -1.111230        -1.047946
 C         2.501114         0.269184        -0.836347
 O         2.262015         1.297229        -1.733361
 O         1.792717        -1.369124         0.705274
 H        -0.772140        -0.245637         0.289463
 H        -0.405474         1.121596        -0.574679
 H        -0.379739        -0.409669        -1.455714
 H         1.856419         2.066261         0.684492
 H         1.510092         0.968512         2.107806
 H         4.254254         0.914199         0.731831
 H         3.831557        -1.818120         0.989031
 H         4.289557        -0.752419        -1.306506
 H         2.957885        -1.972498        -1.718597
 H         3.181504         1.567694        -1.964579
