19
Iteration:  1656
 C        -0.038121        -0.064500        -0.487067
 C         1.364652         0.033224         0.144277
 C         2.059458         0.897343         1.311475
 C         3.282283         0.471945         0.586378
 C         3.042088        -1.068804         0.435406
 C         3.167004        -1.037688        -1.026830
 C         2.581390         0.333749        -0.812612
 O         2.255563         1.229717        -1.871298
 O         1.637217        -1.311485         0.617470
 H        -0.572970        -0.229579         0.425804
 H        -0.310091         0.990058        -0.920027
 H        -0.113467        -0.925466        -1.060160
 H         1.869040         2.014913         1.328851
 H         1.806414         0.372989         2.221072
 H         4.309263         0.782418         0.815890
 H         3.709684        -1.728297         1.022997
 H         4.374584        -0.935726        -1.221639
 H         2.657539        -1.807585        -1.705505
 H         2.994587         1.528367        -2.464907
