19
Iteration:   260
 C        -0.159349         0.076768        -0.156098
 C         1.307887         0.074923         0.196584
 C         2.136903         1.001455         1.155496
 C         3.310441         0.321437         0.547140
 C         3.001600        -1.182228         0.477225
 C         3.126504        -1.029920        -1.076669
 C         2.640103         0.318184        -0.861689
 O         2.505755         1.222930        -1.960107
 O         1.580843        -1.309432         0.562921
 H        -0.686416        -0.141152         0.725014
 H        -0.571719         1.003792        -0.562608
 H        -0.244979        -0.685993        -0.894528
 H         1.982526         2.117248         0.982649
 H         1.955110         0.881074         2.249555
 H         4.381651         0.615024         0.864568
 H         3.581711        -1.941580         1.010061
 H         4.314642        -1.157224        -1.360238
 H         2.533078        -1.838816        -1.718633
 H         1.530472         1.101949        -2.138458
