19
Iteration:  1855
 C        -0.169976        -0.025193        -0.395745
 C         1.324128         0.053313         0.171066
 C         1.991025         0.903019         1.248095
 C         3.266506         0.422864         0.585430
 C         3.201965        -1.166537         0.445271
 C         3.184665        -1.024657        -1.068189
 C         2.532449         0.319464        -0.804121
 O         2.344635         1.210850        -1.909277
 O         1.666555        -1.273473         0.662288
 H        -0.841160        -0.210835         0.375208
 H        -0.367475         0.895825        -0.832903
 H        -0.143643        -0.780164        -1.284523
 H         1.910312         1.980373         1.130980
 H         1.828893         0.591739         2.278511
 H         4.235392         0.991797         0.712395
 H         3.753982        -1.945225         0.914568
 H         4.267096        -0.804775        -1.420992
 H         2.622083        -1.703782        -1.751918
 H         3.104711         1.732255        -2.154289
