19
Iteration:     4
 C        -0.112169         0.117258        -0.244806
 C         1.308098         0.048940         0.142078
 C         1.990631         0.973400         1.168878
 C         3.321721         0.412426         0.526644
 C         3.069427        -1.174142         0.454578
 C         3.168577        -1.132667        -1.093565
 C         2.528117         0.250843        -0.860907
 O         2.473393         1.186674        -1.906170
 O         1.651837        -1.284111         0.671284
 H        -0.737429         0.018845         0.635351
 H        -0.228411         1.096660        -0.633665
 H        -0.426856        -0.556966        -0.983391
 H         1.939365         2.018379         0.953688
 H         1.835233         0.711582         2.237585
 H         4.350583         0.688552         0.477710
 H         3.640519        -1.963747         1.029784
 H         4.233233        -0.977723        -1.583340
 H         2.580269        -1.929185        -1.710803
 H         2.045060         2.029142        -1.588591
