19
Iteration:  1229
 C        -0.095083         0.008415        -0.345781
 C         1.323013        -0.029421         0.154594
 C         1.905429         1.038780         1.226795
 C         3.182950         0.527470         0.581220
 C         3.147384        -1.125634         0.459293
 C         3.212756        -1.133987        -1.166801
 C         2.561139         0.268886        -0.832229
 O         2.396783         1.270096        -1.831734
 O         1.699552        -1.383646         0.637728
 H        -0.840904        -0.059679         0.340800
 H        -0.352304         0.982499        -0.814377
 H        -0.324653        -0.766022        -0.989640
 H         1.696363         2.090833         1.052344
 H         1.697229         0.675512         2.248740
 H         4.177361         1.010183         0.552225
 H         3.861531        -1.734876         1.064196
 H         4.289426        -1.034622        -1.685856
 H         2.613192        -2.014867        -1.547064
 H         3.311674         1.545841        -1.847547
