19
Iteration:  2989
 C        -0.006723         0.110838        -0.329494
 C         1.403480        -0.083900         0.160898
 C         1.964269         0.954340         1.179279
 C         3.312955         0.477890         0.477539
 C         3.064506        -1.142606         0.478126
 C         3.151669        -1.122890        -1.205188
 C         2.536548         0.254277        -0.885913
 O         2.275390         1.306528        -1.835391
 O         1.747021        -1.362257         0.775614
 H        -0.765352        -0.156781         0.377338
 H        -0.092436         1.168655        -0.739879
 H        -0.154521        -0.777398        -1.028313
 H         1.865486         1.984657         0.898243
 H         1.829714         0.850578         2.201106
 H         4.378875         0.958505         0.674675
 H         3.794768        -1.832844         0.949660
 H         4.215158        -1.135833        -1.591095
 H         2.417054        -1.883508        -1.564866
 H         1.560063         1.870745        -1.528516
