19
Iteration:  3539
 C        -0.198675         0.031248         0.014233
 C         1.285890        -0.061360         0.204769
 C         1.945852         1.016991         1.054198
 C         3.236327         0.554915         0.497811
 C         3.132774        -1.112392         0.434768
 C         3.178143        -1.068740        -1.268740
 C         2.543660         0.231523        -0.877822
 O         2.554471         1.247538        -1.799707
 O         1.732526        -1.383182         0.651552
 H        -0.736378        -0.089223         0.920102
 H        -0.538256         1.055816        -0.423750
 H        -0.660701        -0.888196        -0.618595
 H         1.494083         1.985581         0.662058
 H         1.739068         1.091755         2.175437
 H         4.194868         1.043829         0.483744
 H         3.844046        -1.804580         0.909273
 H         4.174369        -0.866329        -1.716307
 H         2.607534        -1.820363        -1.824559
 H         2.337704         0.888259        -2.708410
