19
Iteration:  2713charge 0 multiplicity 1
 C        -0.272649         0.034262        -0.129572
 C         1.275021        -0.013178         0.120191
 C         1.887497         0.927280         1.183538
 C         3.243182         0.473738         0.502337
 C         3.186396        -1.142403         0.314903
 C         3.211494        -1.035490        -1.136746
 C         2.581813         0.243860        -0.899238
 O         2.551231         1.283193        -1.816259
 O         1.788851        -1.314715         0.685054
 H        -0.719280        -0.094526         0.764389
 H        -0.804427         0.954635        -0.672632
 H        -0.676315        -0.772946        -0.676110
 H         1.610839         1.969817         1.026671
 H         1.684648         0.582070         2.246865
 H         4.177938         0.961068         0.602283
 H         3.706145        -1.873250         0.956338
 H         4.313042        -0.965853        -1.355094
 H         2.679549        -1.861357        -1.684467
 H         1.775216         1.284813        -2.381374
