19
Iteration:  1910
 C        -0.253108         0.011751        -0.163130
 C         1.260534        -0.029168         0.102691
 C         1.907792         1.023130         1.042027
 C         3.236378         0.388037         0.581039
 C         3.093460        -1.129129         0.485985
 C         3.360060        -1.032011        -1.127664
 C         2.584431         0.243713        -0.876435
 O         2.434170         1.345551        -1.775859
 O         1.724850        -1.355450         0.621121
 H        -0.711573        -0.352082         0.761529
 H        -0.602925         0.981873        -0.346623
 H        -0.759242        -0.693975        -1.067615
 H         1.723726         1.936454         0.534407
 H         1.752185         0.920472         2.114151
 H         4.295204         0.685817         0.802644
 H         3.654483        -1.891323         0.957651
 H         4.483525        -0.889635        -1.233882
 H         2.950691        -1.798348        -1.824171
 H         2.920280         1.081940        -2.559379
