19
Iteration:    97charge 0 multiplicity 1
 C        -0.258471         0.161458        -0.227308
 C         1.251454         0.026640         0.044025
 C         2.019913         0.968525         1.119573
 C         3.308053         0.382258         0.497280
 C         3.146623        -1.180346         0.500825
 C         3.193816        -1.157246        -1.085579
 C         2.662134         0.186536        -0.861489
 O         2.494248         1.278146        -1.878756
 O         1.669372        -1.291969         0.684843
 H        -0.730300        -0.043312         0.783537
 H        -0.724946         1.173011        -0.530027
 H        -0.678930        -0.650901        -0.933752
 H         1.854381         2.080003         0.836729
 H         1.865740         0.837205         2.195746
 H         4.366565         0.773370         0.721234
 H         3.663052        -1.863953         1.114821
 H         4.193775        -1.191334        -1.494151
 H         2.507543        -1.768044        -1.640741
 H         1.720003         1.751981        -1.611407
