19
Iteration:  3190charge 0 multiplicity 1
 C        -0.294110         0.113588        -0.047165
 C         1.234547         0.007804         0.196807
 C         2.002980         0.844308         1.158538
 C         3.278247         0.409401         0.421623
 C         3.144628        -1.137134         0.386029
 C         3.231117        -1.108285        -1.119898
 C         2.534780         0.246657        -0.970418
 O         2.540310         1.285750        -1.959784
 O         1.736627        -1.249868         0.728253
 H        -0.705517        -0.064057         0.964698
 H        -0.684964         0.970958        -0.575692
 H        -0.599273        -0.802698        -0.708251
 H         1.930530         1.882534         1.093181
 H         1.847240         0.567095         2.142677
 H         4.297765         0.713949         0.459428
 H         3.668384        -1.808491         1.146818
 H         4.253699        -0.889555        -1.501836
 H         2.759118        -1.908095        -1.662115
 H         1.751110         1.784278        -1.774854
