19
Iteration:  3468charge 0 multiplicity 1
 C        -0.003393         0.106918        -0.351818
 C         1.340683        -0.050255         0.189282
 C         2.072550         1.028229         1.146896
 C         3.333330         0.403903         0.542952
 C         3.159732        -1.135144         0.460565
 C         3.162077        -1.082205        -1.162579
 C         2.520165         0.237494        -0.854861
 O         2.206085         1.288119        -1.844290
 O         1.722706        -1.378193         0.742205
 H        -0.812169        -0.226378         0.452376
 H        -0.241334         1.103810        -0.708203
 H        -0.132851        -0.615841        -1.183002
 H         1.950014         2.000498         0.733878
 H         1.890180         1.125412         2.195674
 H         4.366193         0.829893         0.737062
 H         3.578878        -1.861302         1.122974
 H         4.170381        -0.924048        -1.522515
 H         2.652564        -1.947421        -1.656082
 H         1.225034         1.380533        -1.986547
