19
Iteration:   432
 C        -0.207745         0.179822        -0.194263
 C         1.288746         0.060399         0.198605
 C         2.078455         0.981017         1.195294
 C         3.245859         0.394343         0.461876
 C         3.130412        -1.240620         0.415201
 C         3.231309        -1.198943        -1.082256
 C         2.546258         0.230347        -0.950326
 O         2.451005         1.311659        -1.826573
 O         1.634662        -1.281677         0.674034
 H        -0.891746        -0.076786         0.669188
 H        -0.407587         1.272731        -0.457782
 H        -0.423330        -0.468718        -1.159160
 H         2.094082         2.016992         0.805362
 H         1.895389         0.698337         2.219275
 H         4.323194         0.778712         0.720083
 H         3.538864        -2.061717         0.988692
 H         4.211812        -0.998432        -1.301289
 H         2.954786        -1.995175        -1.695159
 H         2.100669         1.015817        -2.680852
