19
Iteration:  1383
 C        -0.117355        -0.042282        -0.313006
 C         1.326555         0.048514         0.067092
 C         1.964126         1.038565         1.112405
 C         3.299338         0.393495         0.643641
 C         3.097463        -1.206980         0.440422
 C         3.297595        -1.130901        -1.080654
 C         2.600382         0.240807        -0.853903
 O         2.255147         1.292867        -1.742582
 O         1.669393        -1.232691         0.620434
 H        -0.637044        -0.409581         0.531408
 H        -0.672607         0.945637        -0.706339
 H        -0.203407        -0.721249        -1.157365
 H         1.744677         2.038285         0.788205
 H         1.802418         0.901938         2.228171
 H         4.227624         0.875129         0.670364
 H         3.430963        -2.084260         1.017593
 H         4.359113        -0.784362        -1.332146
 H         3.009121        -1.861758        -1.818030
 H         3.048167         1.579019        -2.260673
