19
Iteration:  1613charge 0 multiplicity 1
 C        -0.171262         0.069724        -0.261620
 C         1.295200        -0.074783         0.071999
 C         1.869520         0.994755         1.111819
 C         3.206743         0.491554         0.536919
 C         3.125138        -1.146659         0.479066
 C         3.275778        -1.016823        -1.104509
 C         2.555527         0.229196        -0.899128
 O         2.411845         1.272166        -1.691175
 O         1.753987        -1.390975         0.628775
 H        -0.706812         0.087071         0.620700
 H        -0.200433         1.085991        -0.849329
 H        -0.571958        -0.762010        -0.884865
 H         1.483438         2.031197         0.822610
 H         1.780859         0.882720         2.191579
 H         4.207882         0.898773         0.756019
 H         3.765131        -1.879623         1.021743
 H         4.303259        -0.807614        -1.484239
 H         2.866634        -1.807598        -1.772992
 H         3.062311         1.139283        -2.437848
