19
Iteration:  4947
 C        -0.094080         0.025952        -0.303234
 C         1.358915         0.063895         0.129631
 C         2.084060         1.150084         1.198228
 C         3.295816         0.391531         0.455079
 C         3.189158        -1.162180         0.423997
 C         3.237562        -1.122664        -1.093946
 C         2.538329         0.238800        -0.852235
 O         2.169589         1.146191        -1.828478
 O         1.698057        -1.310431         0.709412
 H        -0.695992        -0.178626         0.566257
 H        -0.401282         1.016111        -0.605687
 H        -0.256510        -0.934095        -0.939088
 H         1.988282         2.178293         0.901915
 H         1.749170         1.075934         2.188024
 H         4.430589         0.551293         0.402493
 H         3.847923        -1.809076         0.970165
 H         4.271963        -0.999752        -1.454946
 H         2.641713        -1.747720        -1.797366
 H         1.748282         1.978777        -1.622684
