19
Iteration:  3426
 C        -0.146522         0.036911        -0.177860
 C         1.306067         0.030858         0.188583
 C         2.035609         0.966580         1.173587
 C         3.252783         0.503900         0.408170
 C         3.167523        -1.116023         0.447638
 C         3.220550        -1.169560        -1.114852
 C         2.447475         0.222062        -0.857087
 O         2.464457         1.245041        -1.791917
 O         1.689756        -1.300237         0.596700
 H        -0.689963        -0.441011         0.748479
 H        -0.503164         1.023465        -0.414719
 H        -0.456352        -0.584368        -1.152957
 H         1.744894         2.062195         1.027333
 H         2.000775         0.751040         2.270389
 H         4.218057         0.985982         0.453023
 H         3.859142        -1.597930         1.108093
 H         4.122724        -0.821133        -1.637435
 H         2.773190        -2.033168        -1.658353
 H         1.593998         1.374144        -2.244632
