19
Iteration:  4339
 C        -0.225494         0.041889        -0.154741
 C         1.291341        -0.005295         0.185815
 C         2.020136         1.002242         1.115233
 C         3.276914         0.411242         0.528092
 C         3.168935        -1.151435         0.411983
 C         3.213885        -1.026194        -1.172324
 C         2.463435         0.263569        -0.870492
 O         2.409493         1.267146        -1.823852
 O         1.771633        -1.333458         0.720748
 H        -0.646318        -0.050051         0.902036
 H        -0.441581         1.046669        -0.519783
 H        -0.518883        -0.829410        -0.706802
 H         1.960275         2.024136         0.681184
 H         1.739464         1.095161         2.129860
 H         4.247313         0.915371         0.268734
 H         3.815019        -2.032216         0.700868
 H         4.137107        -1.006222        -1.737497
 H         2.647658        -1.856106        -1.706638
 H         2.181784         0.857980        -2.681565
