19
Iteration:  3284charge 0 multiplicity 1
 C        -0.059956         0.123242        -0.315122
 C         1.326179        -0.067202         0.248982
 C         2.137431         0.993840         1.251700
 C         3.305456         0.479454         0.468776
 C         3.172558        -1.103618         0.441517
 C         3.082864        -1.073196        -1.136486
 C         2.454955         0.250265        -0.830813
 O         2.325929         1.129702        -1.898426
 O         1.700478        -1.327914         0.640146
 H        -0.841083        -0.219060         0.364751
 H        -0.220897         1.125086        -0.665587
 H        -0.139581        -0.445440        -1.297061
 H         1.895395         2.155898         1.211670
 H         2.112704         0.755184         2.411347
 H         4.282675         0.958020         0.652936
 H         3.778895        -1.866548         0.838568
 H         3.978049        -0.962398        -1.751241
 H         2.416392        -1.925277        -1.490496
 H         1.808830         1.887969        -1.494051
