19
Iteration:  4048
 C        -0.224516        -0.044188         0.031341
 C         1.252079         0.051648         0.100103
 C         1.985779         0.990314         1.097776
 C         3.270785         0.357163         0.532353
 C         3.047399        -1.150791         0.387312
 C         3.282891        -1.034896        -1.117941
 C         2.566522         0.279112        -0.964803
 O         2.380257         1.267000        -1.923067
 O         1.743278        -1.270921         0.698526
 H        -0.592701        -0.092864         1.064522
 H        -0.557911         0.969532        -0.331162
 H        -0.487083        -0.966665        -0.422547
 H         1.901494         2.077798         0.704851
 H         1.694280         0.777111         2.154830
 H         4.238669         0.928818         0.556076
 H         3.794438        -1.887336         0.722970
 H         4.446292        -1.034157        -1.104841
 H         2.780461        -1.726687        -1.834740
 H         3.154253         1.173945        -2.520973
