19
Iteration:  4522
 C        -0.207215         0.074709        -0.025930
 C         1.270452        -0.008494         0.116907
 C         1.956291         0.896552         1.063568
 C         3.231851         0.431242         0.411156
 C         3.184127        -1.175888         0.403822
 C         3.287451        -1.118088        -1.134456
 C         2.546060         0.267115        -0.915214
 O         2.463252         1.309568        -1.793945
 O         1.724242        -1.265810         0.666811
 H        -0.520708        -0.035626         1.011032
 H        -0.652803         1.010292        -0.233992
 H        -0.783584        -0.817340        -0.493381
 H         1.741632         1.981092         0.784349
 H         1.814788         0.813741         2.155401
 H         4.068160         1.122944         0.462676
 H         3.689730        -1.852332         1.147352
 H         4.294447        -0.879347        -1.414463
 H         2.724466        -1.902926        -1.695704
 H         1.931276         0.989903        -2.537260
