19
Iteration:  2404charge 0 multiplicity 1
 C        -0.259679        -0.135690        -0.048177
 C         1.256616         0.097635         0.070890
 C         1.908880         0.935020         1.157359
 C         3.258925         0.481588         0.583974
 C         3.050721        -1.122698         0.392769
 C         3.344216        -1.085321        -1.075973
 C         2.581013         0.351930        -0.904868
 O         2.578486         1.263255        -1.865890
 O         1.684694        -1.267174         0.555850
 H        -0.612685        -0.399212         0.898271
 H        -0.822249         0.687572        -0.440911
 H        -0.461533        -1.071602        -0.688979
 H         1.847529         2.065116         1.069962
 H         1.735159         0.553043         2.163902
 H         4.255723         0.947479         0.796192
 H         3.583235        -1.867998         0.927701
 H         4.333277        -0.950644        -1.356844
 H         2.811348        -1.693790        -1.772062
 H         1.965333         1.066495        -2.559873
