19
Iteration:  2560charge 0 multiplicity 1
 C        -0.234139        -0.069866        -0.027908
 C         1.261989        -0.040037         0.201951
 C         1.914795         0.997248         1.083821
 C         3.222486         0.511575         0.488995
 C         3.057493        -1.116624         0.366667
 C         3.338023        -1.105512        -1.140521
 C         2.619612         0.283544        -0.883489
 O         2.557602         1.347783        -1.804577
 O         1.682805        -1.367038         0.561190
 H        -0.841102        -0.096854         0.820674
 H        -0.601798         1.008622        -0.430458
 H        -0.522678        -0.813450        -0.773070
 H         1.593720         1.998678         0.745781
 H         1.706520         0.875007         2.199260
 H         4.230000         0.900391         0.730637
 H         3.748463        -1.670685         1.085894
 H         4.394944        -1.012720        -1.250374
 H         2.921802        -1.852709        -1.670375
 H         1.895298         0.984020        -2.448345
