19
Iteration:  1544charge 0 multiplicity 1
 C        -0.058826        -0.032087        -0.362435
 C         1.299778        -0.045960         0.198424
 C         1.990475         0.943358         1.219175
 C         3.229766         0.458612         0.573662
 C         3.105616        -1.114823         0.430140
 C         3.131793        -0.989643        -1.057408
 C         2.520950         0.343969        -0.806168
 O         2.415357         1.210262        -1.927713
 O         1.701268        -1.313379         0.652635
 H        -0.915986        -0.468077         0.271354
 H        -0.454490         0.908237        -0.784745
 H        -0.131379        -0.666194        -1.144180
 H         1.756423         1.954142         0.968157
 H         1.682584         0.780503         2.275231
 H         4.226128         0.715230         0.829668
 H         3.635161        -1.895949         0.964089
 H         4.248924        -0.846280        -1.501893
 H         2.762017        -1.870610        -1.633634
 H         3.212386         1.811941        -1.993007
