19
Iteration:  3724
 C        -0.219415        -0.032070         0.058283
 C         1.316861        -0.036884         0.125722
 C         1.928003         0.964327         1.060775
 C         3.292934         0.429856         0.473974
 C         3.102400        -1.098010         0.460685
 C         3.181708        -1.144535        -1.169288
 C         2.520573         0.220281        -1.004435
 O         2.529004         1.385755        -1.895687
 O         1.730937        -1.262920         0.753012
 H        -0.655743        -0.202626         0.963103
 H        -0.416800         0.955846        -0.374397
 H        -0.482682        -0.940925        -0.606917
 H         1.638188         2.069507         0.963489
 H         1.781700         0.628222         2.177170
 H         4.208205         0.991921         0.630268
 H         3.787505        -1.736981         1.003554
 H         4.142469        -1.196956        -1.812417
 H         2.477177        -1.898441        -1.665952
 H         2.416597         1.270453        -2.868371
