19
Iteration:  4578charge 0 multiplicity 1
 C        -0.166865        -0.045872        -0.113099
 C         1.322958         0.011937         0.150797
 C         1.987692         1.015932         1.124128
 C         3.355368         0.419964         0.553077
 C         3.118933        -1.135352         0.365944
 C         3.132035        -1.034788        -1.148901
 C         2.513314         0.293059        -0.907526
 O         2.450671         1.240119        -1.876056
 O         1.758979        -1.281707         0.706441
 H        -0.599599        -0.214154         0.888028
 H        -0.506946         0.920070        -0.392749
 H        -0.723300        -0.811006        -0.770505
 H         1.671058         2.077666         0.903149
 H         1.627019         0.592863         2.063250
 H         4.311893         0.729591         0.954039
 H         3.739872        -1.745933         0.949356
 H         4.101777        -1.102871        -1.519392
 H         2.574103        -1.644723        -1.849742
 H         1.826351         1.104078        -2.611153
