19
Iteration:   685
 C        -0.073718         0.177165        -0.263815
 C         1.281909         0.027502         0.216622
 C         1.985591         0.930010         1.212199
 C         3.222611         0.455737         0.496256
 C         3.109108        -1.170754         0.432442
 C         3.091375        -1.146073        -1.117756
 C         2.523196         0.221760        -0.905084
 O         2.499099         1.254617        -1.922936
 O         1.730379        -1.348690         0.725568
 H        -0.810095         0.329189         0.457840
 H        -0.181830         1.083213        -0.915964
 H        -0.151641        -0.742354        -0.834189
 H         1.770264         1.943041         1.166045
 H         1.932967         0.514628         2.216902
 H         4.227985         0.850272         0.485734
 H         3.830976        -1.892881         0.841812
 H         4.147199        -1.133080        -1.395812
 H         2.499522        -1.902712        -1.698546
 H         1.912148         2.041307        -1.822437
