19
Iteration:  1093charge 0 multiplicity 1
 C        -0.226425        -0.027161        -0.282562
 C         1.255691        -0.042887         0.085670
 C         1.949113         0.964681         1.099091
 C         3.303804         0.351502         0.637487
 C         3.094267        -1.120653         0.467132
 C         3.222737        -1.013223        -1.052563
 C         2.527091         0.315174        -0.829810
 O         2.464389         1.255725        -1.879155
 O         1.744326        -1.309864         0.619531
 H        -0.690110         0.111647         0.736636
 H        -0.241836         0.794039        -0.865596
 H        -0.714726        -0.962520        -0.621887
 H         2.015955         2.049319         0.675901
 H         1.514850         0.829689         2.143880
 H         4.358677         0.749556         0.716508
 H         3.594766        -1.895284         1.026072
 H         4.258529        -0.828374        -1.423613
 H         2.682403        -1.728712        -1.795736
 H         2.892936         2.146648        -1.741036
