19
Iteration:  4785charge 0 multiplicity 1
 C        -0.079528         0.041749        -0.336921
 C         1.390657         0.053430         0.180328
 C         2.111860         0.964472         1.223433
 C         3.305000         0.460935         0.487105
 C         3.165600        -1.184049         0.527084
 C         3.142562        -1.103384        -1.156154
 C         2.481246         0.184629        -0.928711
 O         2.222383         1.297833        -1.913480
 O         1.727072        -1.254866         0.804197
 H        -0.751169        -0.206763         0.432121
 H        -0.353507         1.026535        -0.678278
 H        -0.219717        -0.814470        -1.034952
 H         1.829983         2.046289         1.177317
 H         2.094222         0.644405         2.301785
 H         4.393175         0.768590         0.408063
 H         3.761264        -1.850349         1.163552
 H         4.135931        -0.917723        -1.620402
 H         2.831769        -1.985685        -1.724418
 H         1.404227         1.128768        -2.431471
