19
Iteration:  3911charge 0 multiplicity 1
 C        -0.197412         0.102595        -0.118083
 C         1.324726        -0.064779         0.170648
 C         2.039204         0.935031         1.153011
 C         3.236856         0.487967         0.451008
 C         3.137814        -1.148665         0.430601
 C         3.196163        -1.106797        -1.203241
 C         2.500904         0.220457        -0.885362
 O         2.366488         1.246221        -1.887434
 O         1.771662        -1.250774         0.787010
 H        -0.913959        -0.029362         0.635298
 H        -0.592288         1.107744        -0.420770
 H        -0.607275        -0.780670        -0.741011
 H         1.916307         1.986557         0.974356
 H         1.700918         0.503876         2.149036
 H         4.138839         1.139321         0.516603
 H         3.780717        -1.892970         0.872822
 H         4.240868        -0.896544        -1.611148
 H         2.714030        -1.784525        -1.995890
 H         3.079062         1.144839        -2.555411
