19
Iteration:  4767charge 0 multiplicity 1
 C        -0.145457        -0.021309        -0.242629
 C         1.283939         0.037885         0.163676
 C         2.112688         0.991863         1.116161
 C         3.367663         0.427191         0.370198
 C         3.105295        -1.121471         0.373469
 C         3.217648        -1.119581        -1.085783
 C         2.503498         0.259990        -0.844130
 O         2.271554         1.241493        -1.742554
 O         1.712605        -1.221715         0.745733
 H        -0.850323        -0.338168         0.609493
 H        -0.431803         1.009402        -0.689151
 H        -0.232591        -0.749030        -1.018283
 H         2.118641         2.074497         0.876849
 H         1.938667         0.852533         2.219055
 H         4.348574         0.912019         0.489098
 H         3.689118        -1.813761         1.040054
 H         4.310022        -1.120519        -1.418370
 H         2.740489        -1.884606        -1.671719
 H         1.803938         0.826982        -2.498614
