19
Iteration:   592charge 0 multiplicity 1
 C        -0.229229         0.205236        -0.238978
 C         1.264325         0.016912         0.180603
 C         2.035968         0.902389         1.266124
 C         3.337306         0.370512         0.450975
 C         3.227068        -1.145665         0.423049
 C         3.125848        -1.178716        -1.080801
 C         2.447881         0.248222        -0.901733
 O         2.494849         1.216024        -1.964261
 O         1.684438        -1.285377         0.713524
 H        -1.002389         0.057259         0.530398
 H        -0.388866         1.238687        -0.429669
 H        -0.486925        -0.309057        -1.125353
 H         1.849258         2.012894         1.067328
 H         1.942080         0.549385         2.308751
 H         4.248832         0.878608         0.328689
 H         3.712778        -1.884967         1.030494
 H         4.152805        -0.939227        -1.617278
 H         2.588668        -2.026254        -1.639423
 H         2.534618         2.031947        -1.443517
