19
Iteration:  2506charge 0 multiplicity 1
 C        -0.140831        -0.070797        -0.377612
 C         1.380694        -0.012879         0.232738
 C         2.017690         1.046272         1.251497
 C         3.236008         0.432547         0.486057
 C         3.080540        -1.195608         0.433981
 C         3.234523        -0.991784        -1.172081
 C         2.570681         0.273752        -0.842530
 O         2.370249         1.303106        -1.801824
 O         1.722185        -1.337575         0.697932
 H        -0.903703        -0.103816         0.271794
 H        -0.241481         1.013412        -1.001397
 H        -0.256135        -0.848186        -1.119377
 H         1.742221         2.057172         0.916699
 H         1.836483         0.876727         2.360883
 H         4.239208         0.862044         0.612730
 H         3.716792        -1.826941         1.159111
 H         4.241677        -1.011265        -1.586436
 H         2.581061        -1.635264        -1.646246
 H         1.545989         0.925602        -2.249327
