19
Iteration:  4005
 C        -0.188697         0.007765        -0.169932
 C         1.286210        -0.068715         0.174598
 C         2.039768         1.004536         1.189002
 C         3.289307         0.479101         0.402425
 C         3.208055        -1.093121         0.354110
 C         3.114745        -1.140311        -1.101371
 C         2.499685         0.268280        -0.844501
 O         2.358933         1.325311        -1.858168
 O         1.748388        -1.308922         0.731317
 H        -1.014683        -0.126965         0.556092
 H        -0.446025         1.000842        -0.658868
 H        -0.417315        -0.881664        -0.830776
 H         1.857391         2.122071         0.960707
 H         1.917991         0.724299         2.262858
 H         4.383389         0.706239         0.435189
 H         3.743740        -1.703773         1.070740
 H         4.182456        -1.200903        -1.581424
 H         2.608545        -2.040564        -1.448464
 H         3.002175         1.188208        -2.591214
