19
Iteration:  2144
 C        -0.035192         0.122103        -0.377419
 C         1.357644        -0.076920         0.111657
 C         1.988995         0.943499         1.096364
 C         3.283690         0.457894         0.524396
 C         3.108076        -1.183261         0.461439
 C         3.264476        -1.065385        -1.045654
 C         2.532566         0.182989        -0.868323
 O         2.167531         1.263305        -1.722488
 O         1.689008        -1.318917         0.698523
 H        -0.680510         0.058967         0.468357
 H        -0.089808         1.232128        -0.888495
 H        -0.292461        -0.664453        -1.257100
 H         1.863318         1.880196         0.531069
 H         2.046424         0.973992         2.142689
 H         4.308588         0.913839         0.589713
 H         3.788755        -1.936021         0.808691
 H         4.330749        -0.851855        -1.327283
 H         2.841644        -1.869007        -1.694204
 H         2.688622         2.105863        -1.617836
