19
Iteration:  1751charge 0 multiplicity 1
 C        -0.173349        -0.102626        -0.251459
 C         1.294154         0.049367         0.101377
 C         1.946855         0.922068         1.223071
 C         3.294670         0.397754         0.628027
 C         3.118118        -1.123919         0.524757
 C         3.218096        -0.948902        -1.108052
 C         2.549932         0.347854        -0.840182
 O         2.462250         1.210740        -1.948017
 O         1.647266        -1.262291         0.533543
 H        -0.841306        -0.441923         0.738306
 H        -0.754362         0.842059        -0.696517
 H        -0.362366        -1.073960        -0.756369
 H         1.990381         1.999005         1.188317
 H         1.724117         0.544791         2.271152
 H         4.229123         0.823193         0.859156
 H         3.454985        -1.863759         1.306362
 H         4.206473        -0.779274        -1.356029
 H         2.836129        -1.663754        -1.785717
 H         3.306771         1.478171        -2.283810
