19
Iteration:  3005charge 0 multiplicity 1
 C        -0.101554         0.118912        -0.259595
 C         1.330077         0.044802         0.130445
 C         1.968369         0.988284         1.090435
 C         3.236263         0.407891         0.504737
 C         3.260076        -1.150481         0.402823
 C         3.153058        -1.129945        -1.117366
 C         2.509732         0.238592        -0.847340
 O         2.374818         1.253797        -1.776234
 O         1.783549        -1.378182         0.686692
 H        -0.765864         0.093977         0.690664
 H        -0.255925         1.082055        -0.677735
 H        -0.552664        -0.606234        -0.960245
 H         1.689476         2.057247         0.858408
 H         1.605370         0.798872         2.189198
 H         4.161777         0.883216         0.524868
 H         3.809910        -1.784184         1.081019
 H         4.083457        -0.896205        -1.624535
 H         2.493853        -1.841733        -1.590580
 H         1.463624         1.514164        -1.714524
