19
Iteration:  3756
 C        -0.167428        -0.010981        -0.118685
 C         1.294332        -0.012324         0.218486
 C         2.091027         1.063453         1.112503
 C         3.364951         0.463513         0.491167
 C         3.078270        -1.191131         0.399594
 C         3.177331        -1.054683        -1.093858
 C         2.471883         0.222744        -0.869626
 O         2.308826         1.213039        -1.811813
 O         1.761547        -1.260262         0.636305
 H        -0.783959        -0.124184         0.694816
 H        -0.340894         0.875284        -0.742867
 H        -0.367870        -0.779337        -0.988830
 H         1.763454         2.123140         0.849721
 H         1.937554         0.956072         2.249009
 H         4.339355         0.903944         0.256714
 H         3.623788        -1.997254         0.889368
 H         4.269566        -0.709196        -1.487128
 H         2.536462        -1.775832        -1.721838
 H         2.696305         1.050143        -2.663396
