19
Iteration:  4804
 C        -0.051902         0.105548        -0.285425
 C         1.335764        -0.021627         0.284998
 C         2.012313         0.950193         1.184276
 C         3.286111         0.452546         0.455740
 C         3.180193        -1.055200         0.375747
 C         3.125867        -1.144012        -1.088211
 C         2.536252         0.345064        -0.843673
 O         2.285669         1.155908        -1.907196
 O         1.784480        -1.305543         0.723587
 H        -0.877366        -0.027215         0.422759
 H        -0.244273         1.104497        -0.655349
 H        -0.212001        -0.768223        -1.052697
 H         1.913946         1.981949         0.924160
 H         1.791696         0.798917         2.200527
 H         4.258058         0.941089         0.525153
 H         3.842755        -1.846577         0.774422
 H         4.129880        -1.116311        -1.465104
 H         2.399423        -1.926690        -1.574362
 H         1.314047         1.196663        -1.966507
