19
Iteration:  3534charge 0 multiplicity 1
 C        -0.174046         0.050835        -0.025099
 C         1.298099        -0.091469         0.211307
 C         1.898390         0.996971         1.060250
 C         3.258660         0.518116         0.482197
 C         3.099053        -1.152703         0.442609
 C         3.154622        -1.084511        -1.236459
 C         2.554244         0.292829        -0.874262
 O         2.536429         1.296851        -1.856342
 O         1.768698        -1.373843         0.675382
 H        -0.770857        -0.087705         0.973011
 H        -0.478618         0.963473        -0.388546
 H        -0.544610        -0.839628        -0.574312
 H         1.587918         1.994527         0.692735
 H         1.831883         1.047078         2.129070
 H         4.201899         1.115488         0.634686
 H         3.765883        -1.823543         0.980297
 H         4.134106        -0.824954        -1.682719
 H         2.637356        -1.871433        -1.823871
 H         2.220028         0.732458        -2.576407
