19
Iteration:   937
 C        -0.104910        -0.039893        -0.203052
 C         1.307022        -0.037838         0.104985
 C         1.938899         1.035012         1.086006
 C         3.253204         0.417304         0.622850
 C         3.052531        -1.237913         0.455408
 C         3.238499        -1.074228        -1.089194
 C         2.616385         0.309514        -0.868302
 O         2.531713         1.345376        -1.894527
 O         1.654588        -1.323974         0.621904
 H        -0.615861        -0.348475         0.701123
 H        -0.473871         1.008024        -0.453174
 H        -0.438612        -0.631660        -1.023757
 H         1.639280         2.057429         0.809728
 H         1.583027         0.889840         2.212455
 H         4.155701         0.773616         0.959730
 H         3.617559        -1.849983         1.192170
 H         4.249743        -0.956657        -1.503024
 H         2.601860        -1.875092        -1.599903
 H         1.618905         1.660897        -2.050279
