19
Iteration:  4400
 C        -0.230951        -0.009471        -0.046715
 C         1.236133         0.045109         0.201168
 C         2.002726         0.990272         1.098420
 C         3.317783         0.396558         0.445505
 C         3.150948        -1.128483         0.419491
 C         3.290046        -1.092597        -1.136185
 C         2.531964         0.226538        -0.882626
 O         2.465107         1.294072        -1.897238
 O         1.678677        -1.256967         0.648464
 H        -0.665161        -0.196859         0.961048
 H        -0.663684         0.980419        -0.414786
 H        -0.655977        -0.864160        -0.743041
 H         1.866770         2.077638         0.896623
 H         1.815009         0.675038         2.188690
 H         4.323200         0.816286         0.442849
 H         3.748781        -1.947551         0.906685
 H         4.320179        -0.758770        -1.303028
 H         2.900902        -2.020367        -1.575304
 H         1.658115         1.050121        -2.378335
