19
Iteration:  3341
 C        -0.191819         0.081025        -0.205611
 C         1.261257        -0.018933         0.212325
 C         2.108403         1.010734         1.155983
 C         3.309553         0.436022         0.385144
 C         3.100776        -1.128660         0.441234
 C         3.248589        -1.147218        -1.093977
 C         2.524963         0.233087        -0.841363
 O         2.269084         1.278646        -1.818026
 O         1.708115        -1.342298         0.615834
 H        -0.823554         0.019033         0.580978
 H        -0.369032         0.958118        -0.755729
 H        -0.384951        -0.953924        -0.741446
 H         1.930724         2.145563         0.933865
 H         2.064849         0.700814         2.235746
 H         4.278415         0.883632         0.367330
 H         3.822193        -1.765196         1.020893
 H         4.312544        -0.965863        -1.432823
 H         2.674484        -1.923856        -1.607358
 H         3.035138         1.858459        -1.819396
