19
Iteration:   820charge 0 multiplicity 1
 C        -0.229659        -0.036478        -0.306081
 C         1.272538         0.022425         0.162550
 C         2.128085         1.007841         1.276151
 C         3.275111         0.460360         0.547589
 C         3.044283        -1.211972         0.491287
 C         3.313967        -1.121049        -1.101855
 C         2.582986         0.322882        -0.946736
 O         2.356650         1.278459        -1.915797
 O         1.609076        -1.303221         0.655736
 H        -0.910876        -0.315073         0.587860
 H        -0.613454         0.913899        -0.605923
 H        -0.393270        -0.697636        -1.185071
 H         1.994312         2.041933         1.181753
 H         2.014742         0.734508         2.262991
 H         4.283238         0.997695         0.677118
 H         3.548737        -1.881293         1.235912
 H         4.360169        -1.046203        -1.283063
 H         2.885784        -1.799140        -1.800486
 H         3.248634         1.653495        -2.194679
