19
Iteration:  3417charge 0 multiplicity 1
 C        -0.187461        -0.045424        -0.072497
 C         1.261795         0.063346         0.219777
 C         2.074133         0.994353         1.196406
 C         3.232701         0.398673         0.395263
 C         3.127879        -1.081450         0.448676
 C         3.215761        -1.071694        -1.034103
 C         2.482533         0.227401        -0.934302
 O         2.493255         1.282047        -1.840829
 O         1.685478        -1.322494         0.526039
 H        -0.939032        -0.338507         0.610755
 H        -0.429119         0.968951        -0.329812
 H        -0.174695        -0.720439        -1.061984
 H         1.798988         2.123928         0.951968
 H         2.138184         0.776262         2.315155
 H         4.205334         0.818802         0.435867
 H         3.818061        -1.627520         1.136463
 H         4.248385        -0.906850        -1.451822
 H         2.713869        -1.949639        -1.459279
 H         1.801431         1.215246        -2.549868
