19
Iteration:  4909
 C        -0.179463        -0.010913        -0.166208
 C         1.304576        -0.042926         0.182817
 C         1.961987         1.015001         1.194819
 C         3.250806         0.482236         0.411246
 C         3.170950        -1.084669         0.390047
 C         3.084707        -1.117148        -1.145940
 C         2.544295         0.314475        -0.885812
 O         2.441606         1.185329        -1.969831
 O         1.784585        -1.339068         0.812863
 H        -0.831450        -0.226089         0.728218
 H        -0.462697         0.971356        -0.624276
 H        -0.447836        -0.650208        -0.957192
 H         1.634018         2.105752         1.099145
 H         2.020178         0.629478         2.284643
 H         4.198923         0.995593         0.353152
 H         3.981341        -1.567413         0.988266
 H         4.090608        -1.142513        -1.647973
 H         2.455217        -1.899810        -1.635437
 H         2.617754         2.098149        -1.657250
