19
Iteration:  4603
 C        -0.094944        -0.059093        -0.256095
 C         1.329557         0.067165         0.241855
 C         2.092428         1.002133         1.206854
 C         3.355120         0.458627         0.459680
 C         3.115118        -1.149680         0.431223
 C         3.119118        -1.163215        -1.130488
 C         2.500013         0.251134        -0.867208
 O         2.320184         1.321108        -1.834090
 O         1.743617        -1.267551         0.698553
 H        -1.006048        -0.423101         0.306421
 H        -0.354043         0.946364        -0.761077
 H        -0.122733        -0.653667        -1.146353
 H         1.858316         2.001888         0.895863
 H         1.798525         0.725026         2.212204
 H         4.343774         0.974911         0.536982
 H         3.609723        -1.812905         1.122609
 H         4.126414        -1.012662        -1.650274
 H         2.644234        -1.892344        -1.787175
 H         1.616309         0.945637        -2.387506
