19
Iteration:  3991charge 0 multiplicity 1
 C        -0.102597         0.033507        -0.291049
 C         1.327385         0.001486         0.192599
 C         2.051574         0.915448         1.139775
 C         3.325039         0.435640         0.429923
 C         3.156120        -1.141883         0.477501
 C         3.161537        -1.127713        -1.150516
 C         2.451536         0.231008        -0.935724
 O         2.241208         1.305541        -1.819468
 O         1.750410        -1.265077         0.829190
 H        -0.694416        -0.100273         0.678685
 H        -0.249072         0.993521        -0.691982
 H        -0.404857        -0.550802        -1.035733
 H         1.781246         2.007400         1.004938
 H         1.962260         0.721415         2.233591
 H         4.232958         1.019230         0.454589
 H         3.847275        -1.847983         0.988033
 H         4.139485        -0.882161        -1.679134
 H         2.605575        -1.919791        -1.804514
 H         2.985756         1.276351        -2.451530
