19
Iteration:   390
 C        -0.058189         0.180288        -0.220368
 C         1.303793        -0.047626         0.173069
 C         2.023497         0.998966         1.101365
 C         3.278144         0.447953         0.502026
 C         3.098299        -1.182593         0.434518
 C         3.118390        -1.227532        -1.103848
 C         2.542191         0.233821        -0.900914
 O         2.494132         1.334012        -1.800094
 O         1.643491        -1.359093         0.669501
 H        -0.761842        -0.039454         0.575405
 H        -0.202580         1.243509        -0.590161
 H        -0.393777        -0.550084        -1.020285
 H         1.790128         2.014843         0.692985
 H         1.973133         0.906549         2.203760
 H         4.339679         0.992862         0.626578
 H         3.752721        -1.821829         1.056301
 H         4.138280        -1.241980        -1.472410
 H         2.422089        -1.943349        -1.546133
 H         1.599007         1.531525        -2.071535
