19
Iteration:  3509charge 0 multiplicity 1
 C        -0.187360        -0.004508        -0.210311
 C         1.331682         0.017471         0.138323
 C         2.063197         0.925326         1.221121
 C         3.313645         0.406900         0.541070
 C         3.139454        -1.083355         0.466746
 C         3.218856        -1.081554        -1.140110
 C         2.485661         0.241612        -0.979483
 O         2.386169         1.306427        -1.893570
 O         1.697271        -1.266328         0.734383
 H        -0.832967        -0.084739         0.674180
 H        -0.549022         0.951137        -0.667033
 H        -0.370831        -0.800115        -0.768606
 H         1.918866         1.950851         1.130058
 H         1.860198         0.571128         2.236851
 H         4.358909         0.866000         0.494108
 H         3.867093        -1.793735         0.867012
 H         4.204633        -1.029681        -1.552335
 H         2.658459        -1.924780        -1.587640
 H         1.698429         1.130088        -2.531961
