19
Iteration:   912charge 0 multiplicity 1
 C        -0.229555        -0.039108        -0.323587
 C         1.243631         0.081821         0.135365
 C         2.021208         0.948881         1.254485
 C         3.294108         0.373377         0.505130
 C         3.114882        -1.143132         0.419968
 C         3.227328        -1.049324        -1.062773
 C         2.581731         0.251644        -0.847110
 O         2.512252         1.242609        -1.796426
 O         1.689636        -1.212371         0.563794
 H        -0.811122        -0.117766         0.614064
 H        -0.707697         0.774411        -1.025469
 H        -0.448755        -1.008875        -0.869153
 H         1.854346         2.067516         1.236028
 H         1.661905         0.641209         2.284907
 H         4.314674         0.772411         0.631714
 H         3.710831        -1.736439         1.082614
 H         4.280665        -0.931881        -1.244770
 H         2.753522        -1.804379        -1.561740
 H         1.657441         1.309463        -2.213513
