19
Iteration:  4656
 C        -0.117279         0.097157        -0.205291
 C         1.358781        -0.047206         0.138159
 C         1.953431         1.019868         1.122866
 C         3.256648         0.410911         0.501158
 C         3.175951        -1.133528         0.334748
 C         3.218440        -1.120200        -1.123457
 C         2.574003         0.247200        -0.899729
 O         2.304547         1.267737        -1.798762
 O         1.765189        -1.286247         0.760255
 H        -0.690806        -0.015395         0.750113
 H        -0.362721         1.077178        -0.712841
 H        -0.387874        -0.663752        -0.989238
 H         1.719691         1.997999         0.659457
 H         1.808452         1.007833         2.245528
 H         4.280453         0.767776         0.779122
 H         3.692162        -1.937015         0.772025
 H         4.255152        -1.054310        -1.492599
 H         2.565452        -1.910719        -1.466302
 H         1.497849         0.873550        -2.153600
