19
Iteration:  3695
 C        -0.263889        -0.020021        -0.002505
 C         1.252525        -0.000784         0.212018
 C         2.022419         1.044755         1.119786
 C         3.301349         0.462646         0.455983
 C         3.149781        -1.107636         0.416077
 C         3.233706        -1.060732        -1.177190
 C         2.451850         0.219710        -0.921509
 O         2.574208         1.233903        -1.878771
 O         1.684873        -1.333715         0.662137
 H        -0.900567        -0.258003         0.973959
 H        -0.722003         0.963431        -0.407801
 H        -0.451743        -0.799792        -0.744722
 H         1.816167         2.039718         0.802173
 H         2.033201         0.840932         2.209918
 H         4.270189         1.059724         0.477625
 H         3.837478        -1.713754         1.011800
 H         4.123290        -0.745050        -1.656110
 H         2.769014        -1.878937        -1.743046
 H         1.841191         1.165932        -2.495492
