19
Iteration:  1799
 C        -0.125637         0.093922        -0.384990
 C         1.323055        -0.032064         0.049154
 C         1.954759         0.879515         1.081921
 C         3.251166         0.428917         0.519379
 C         3.132833        -1.065744         0.490662
 C         3.250460        -1.126475        -1.030843
 C         2.505732         0.213305        -0.836707
 O         2.302765         1.345645        -1.673518
 O         1.767091        -1.358479         0.672268
 H        -0.928297         0.152068         0.388145
 H        -0.146454         1.154690        -0.840740
 H        -0.556791        -0.709469        -1.026058
 H         1.587907         1.893442         0.725645
 H         1.587061         0.751138         2.069936
 H         4.311143         0.850248         0.632429
 H         3.838781        -1.654445         1.044152
 H         4.330989        -0.859959        -1.451658
 H         2.799903        -1.967230        -1.663715
 H         3.072202         1.429530        -2.317665
