19
Iteration:  2293charge 0 multiplicity 1
 C        -0.130628        -0.027630        -0.359118
 C         1.299636         0.069178         0.111974
 C         2.051480         0.948837         1.175728
 C         3.259676         0.382499         0.571767
 C         3.100404        -1.102245         0.414151
 C         3.229293        -1.016684        -1.094563
 C         2.554927         0.295053        -0.806508
 O         2.386887         1.242530        -1.798396
 O         1.696564        -1.309821         0.667721
 H        -0.765024        -0.480333         0.444129
 H        -0.500636         0.887646        -0.644104
 H        -0.235555        -0.753616        -1.218431
 H         1.913605         2.024587         0.966981
 H         1.943933         0.667224         2.262999
 H         4.198855         0.853904         0.760832
 H         3.687596        -1.896842         0.942570
 H         4.243501        -0.652768        -1.294217
 H         2.822918        -1.746081        -1.826009
 H         1.508495         1.122371        -2.267629
