19
Iteration:  1904
 C        -0.273740         0.003961        -0.175950
 C         1.294453        -0.068024         0.092367
 C         1.883776         0.959783         1.065588
 C         3.297706         0.429541         0.526219
 C         3.080734        -1.159462         0.513564
 C         3.333194        -1.042534        -1.108367
 C         2.543843         0.290594        -0.843371
 O         2.461291         1.364208        -1.810834
 O         1.726201        -1.354693         0.624122
 H        -0.694711        -0.340170         0.798902
 H        -0.590435         1.090054        -0.380696
 H        -0.568925        -0.531770        -0.954016
 H         1.634816         1.965495         0.606066
 H         1.633116         0.924807         2.154995
 H         4.228049         0.936399         0.714620
 H         3.660301        -1.986663         1.053474
 H         4.378545        -0.820508        -1.411085
 H         2.863630        -1.853466        -1.703982
 H         3.062511         1.033173        -2.536357
