19
Iteration:   897
 C        -0.108949         0.007513        -0.326462
 C         1.302897        -0.007244         0.098313
 C         2.013298         0.927398         1.217176
 C         3.229851         0.467743         0.492809
 C         3.087644        -1.154553         0.492243
 C         3.249022        -1.080858        -1.088801
 C         2.435452         0.285046        -0.850080
 O         2.516031         1.316017        -1.806974
 O         1.653488        -1.313489         0.674831
 H        -0.825148         0.300814         0.487426
 H        -0.203331         0.819424        -0.968391
 H        -0.321216        -0.935349        -0.862519
 H         1.867950         1.976108         1.232275
 H         2.008077         0.503816         2.157018
 H         4.326965         0.855479         0.448182
 H         3.559303        -1.958551         1.102635
 H         4.182836        -0.652393        -1.503709
 H         2.918822        -1.916391        -1.771570
 H         1.791080         1.163688        -2.430308
