19
Iteration:   826charge 0 multiplicity 1
 C        -0.214137        -0.048051        -0.277746
 C         1.308801         0.038582         0.156171
 C         2.072052         1.005858         1.245658
 C         3.268810         0.445870         0.509948
 C         3.012993        -1.198974         0.494058
 C         3.326876        -1.119710        -1.094784
 C         2.586813         0.279381        -0.909430
 O         2.334816         1.305493        -1.883093
 O         1.630423        -1.286210         0.634041
 H        -0.915885        -0.215008         0.476977
 H        -0.409874         1.040019        -0.572506
 H        -0.273226        -0.698604        -1.134869
 H         2.088514         2.151956         1.124530
 H         1.939042         0.666983         2.370696
 H         4.207553         0.890807         0.648679
 H         3.547765        -1.888930         1.121037
 H         4.445218        -0.956097        -1.285226
 H         2.892432        -2.013900        -1.777134
 H         3.203328         1.414990        -2.282094
