19
Iteration:  2058
 C        -0.250425        -0.046567        -0.138923
 C         1.228909        -0.018388         0.191552
 C         1.873759         0.929212         1.123049
 C         3.245455         0.487437         0.516688
 C         3.117363        -1.142527         0.436312
 C         3.240056        -1.060045        -1.096326
 C         2.586800         0.282393        -0.903103
 O         2.616566         1.290411        -1.860225
 O         1.734835        -1.317624         0.608730
 H        -0.961369        -0.317910         0.694599
 H        -0.377645         1.085200        -0.404796
 H        -0.551765        -0.666532        -0.922511
 H         1.726814         2.016839         0.793971
 H         1.675575         0.856468         2.202955
 H         4.276110         0.851032         0.769862
 H         3.770425        -1.787362         1.000839
 H         4.347561        -0.821170        -1.414851
 H         2.732428        -1.836115        -1.776170
 H         1.773661         1.409512        -2.279067
