19
Iteration:  4600charge 0 multiplicity 1
 C        -0.077882        -0.044612        -0.226094
 C         1.339101         0.075666         0.189325
 C         2.070974         0.972727         1.213053
 C         3.326940         0.447152         0.471599
 C         3.129300        -1.154522         0.429158
 C         3.119091        -1.129525        -1.133926
 C         2.517010         0.255386        -0.858397
 O         2.332464         1.323477        -1.852103
 O         1.732558        -1.264004         0.716319
 H        -0.914311        -0.420261         0.314340
 H        -0.422152         0.873512        -0.678309
 H        -0.156626        -0.764472        -1.142892
 H         1.943004         2.030683         0.801659
 H         1.795541         0.758125         2.261569
 H         4.277950         0.970674         0.495381
 H         3.594128        -1.863447         1.043985
 H         4.011108        -0.998506        -1.665405
 H         2.634024        -1.897974        -1.731014
 H         1.635630         0.835785        -2.340571
