19
Iteration:    75charge 0 multiplicity 1
 C        -0.025757         0.077434        -0.154257
 C         1.330106         0.096493         0.133378
 C         2.055115         1.003894         1.084901
 C         3.270200         0.350460         0.513662
 C         2.937648        -1.206697         0.421606
 C         3.271839        -1.156468        -1.051417
 C         2.551379         0.218475        -0.872265
 O         2.412752         1.243582        -1.881550
 O         1.599528        -1.261368         0.619755
 H        -0.644427        -0.259886         0.711116
 H        -0.378260         1.116336        -0.535445
 H        -0.149800        -0.687926        -1.017535
 H         2.142431         2.075660         0.685720
 H         1.851516         0.966388         2.156863
 H         4.252637         0.893178         0.707944
 H         3.383643        -1.956418         1.004640
 H         4.309355        -0.968969        -1.195226
 H         2.921817        -1.995885        -1.590143
 H         1.951771         2.028911        -1.460403
