19
Iteration:   834
 C        -0.115077         0.029187        -0.246753
 C         1.296184         0.045977         0.137719
 C         1.974204         0.968532         1.171015
 C         3.265645         0.390227         0.477603
 C         3.057514        -1.144569         0.442719
 C         3.296114        -1.111338        -1.060454
 C         2.557190         0.211238        -0.831480
 O         2.330207         1.308089        -1.812901
 O         1.661411        -1.250877         0.613508
 H        -0.867525        -0.294022         0.547068
 H        -0.296562         1.029644        -0.716692
 H        -0.198478        -0.762176        -1.078401
 H         1.908382         2.093770         0.963346
 H         1.804582         0.712651         2.237867
 H         4.381385         0.638278         0.617590
 H         3.604610        -1.894323         1.016948
 H         4.340348        -0.867535        -1.242394
 H         2.970018        -1.929382        -1.582427
 H         3.022037         1.226535        -2.461821
