19
Iteration:  4843charge 0 multiplicity 1
 C        -0.186800         0.041339        -0.058432
 C         1.282816         0.009929         0.166066
 C         1.994642         0.965399         1.100066
 C         3.264158         0.404877         0.460508
 C         3.160161        -1.133198         0.401780
 C         3.265169        -1.073774        -1.084860
 C         2.554595         0.206967        -0.959967
 O         2.351700         1.225978        -1.941953
 O         1.722474        -1.261150         0.693861
 H        -0.642223        -0.141117         0.955670
 H        -0.559695         0.977596        -0.545505
 H        -0.392322        -0.670514        -0.781901
 H         1.838071         2.030460         0.732437
 H         1.955450         0.878966         2.253241
 H         4.269728         0.808566         0.422521
 H         3.837824        -1.728129         1.042595
 H         4.391355        -0.925167        -1.063346
 H         2.986594        -1.986974        -1.569071
 H         1.638215         1.791479        -1.595488
