19
Iteration:  3218
 C        -0.193961         0.042626         0.106320
 C         1.293659        -0.010041         0.171133
 C         1.977399         1.080251         1.043853
 C         3.231556         0.483428         0.501627
 C         3.096350        -1.192222         0.379620
 C         3.219961        -1.068267        -1.119679
 C         2.537693         0.197802        -0.878250
 O         2.590894         1.211887        -1.879831
 O         1.677118        -1.336387         0.480378
 H        -0.344664        -0.271710         1.140109
 H        -0.679079         0.976201        -0.204674
 H        -0.610414        -0.843071        -0.455435
 H         1.752883         2.169253         0.634934
 H         1.887543         1.152093         2.231563
 H         4.337394         0.726321         0.610749
 H         3.427145        -1.913429         1.053875
 H         4.168970        -0.706851        -1.503672
 H         2.580740        -1.863240        -1.634403
 H         1.776175         1.692485        -1.757801
