19
Iteration:  4643
 C        -0.080424         0.110172        -0.297866
 C         1.312294        -0.027370         0.201200
 C         1.959164         0.968935         1.049610
 C         3.368917         0.439893         0.448022
 C         3.179418        -1.181606         0.504363
 C         3.178054        -1.156060        -1.169409
 C         2.477511         0.201910        -0.874316
 O         2.252819         1.292155        -1.733615
 O         1.808397        -1.261424         0.745610
 H        -0.843588        -0.027302         0.441393
 H        -0.168991         1.127090        -0.597600
 H        -0.336180        -0.695188        -1.111779
 H         1.839685         2.087681         0.812395
 H         1.762149         0.777041         2.152469
 H         4.379063         0.872730         0.466811
 H         3.789344        -1.748685         1.157289
 H         4.183744        -0.988705        -1.520855
 H         2.731289        -1.954710        -1.795985
 H         1.474900         1.321580        -2.332505
