19
Iteration:  1524
 C        -0.079735         0.025179        -0.460503
 C         1.271267         0.017817         0.155265
 C         1.888259         0.931721         1.296196
 C         3.285737         0.445057         0.551067
 C         3.214886        -1.119506         0.501497
 C         3.214834        -1.173003        -1.111149
 C         2.541521         0.256833        -0.911279
 O         2.326556         1.325485        -1.872163
 O         1.724522        -1.328031         0.754074
 H        -0.943224        -0.306837         0.189552
 H        -0.460296         1.119976        -0.789654
 H        -0.135553        -0.471959        -1.390829
 H         1.671433         1.979128         1.117599
 H         1.688985         0.649297         2.370320
 H         4.114936         1.057587         0.677417
 H         3.867356        -1.828456         1.029002
 H         4.179893        -1.237274        -1.642676
 H         2.515774        -1.806760        -1.641610
 H         3.166134         1.808730        -2.083096
