19
Iteration:  3933charge 0 multiplicity 1
 C        -0.072042         0.115077        -0.218840
 C         1.363310         0.050976         0.190161
 C         2.010794         0.983329         1.180616
 C         3.331788         0.400228         0.433464
 C         3.132520        -1.121657         0.398605
 C         3.234249        -1.116920        -1.064425
 C         2.507146         0.263276        -0.880267
 O         2.143444         1.183300        -1.848470
 O         1.740824        -1.308649         0.676521
 H        -0.754880         0.009771         0.597833
 H        -0.342679         1.170236        -0.442974
 H        -0.444651        -0.645241        -0.967494
 H         1.836158         2.020139         0.970055
 H         1.901869         0.597965         2.237940
 H         4.413517         0.605917         0.556368
 H         3.814890        -1.727291         0.990858
 H         4.272435        -0.919160        -1.448951
 H         2.716241        -1.965753        -1.611142
 H         2.862775         1.499573        -2.408642
