19
Iteration:  2600
 C        -0.243251         0.014995        -0.141539
 C         1.264342         0.001788         0.120515
 C         1.937929         0.946537         1.154411
 C         3.252625         0.438690         0.511317
 C         3.137038        -1.118160         0.392538
 C         3.312656        -1.083007        -1.124425
 C         2.585151         0.291397        -0.900629
 O         2.393263         1.275783        -1.782690
 O         1.710407        -1.304294         0.628922
 H        -0.673999        -0.383931         0.868945
 H        -0.519734         0.972217        -0.356677
 H        -0.405678        -0.677729        -1.016668
 H         1.817607         2.022613         0.927836
 H         1.628775         0.794678         2.185903
 H         4.270390         0.883245         0.699941
 H         3.655037        -1.818684         1.055378
 H         4.370439        -0.776993        -1.389845
 H         3.009488        -2.034732        -1.805947
 H         2.754088         1.106269        -2.660372
