19
Iteration:  3687
 C        -0.228480        -0.022439        -0.026308
 C         1.250062         0.039552         0.230313
 C         2.053884         1.039640         1.141606
 C         3.289149         0.430921         0.495920
 C         3.186926        -1.084740         0.476718
 C         3.238388        -1.033120        -1.234928
 C         2.403303         0.190469        -0.938999
 O         2.514405         1.210005        -1.887432
 O         1.728717        -1.307902         0.616802
 H        -0.898804        -0.248286         0.878391
 H        -0.579914         0.897088        -0.443451
 H        -0.480390        -0.659171        -0.790622
 H         1.873480         2.037715         0.803032
 H         1.773808         0.987035         2.138738
 H         4.340155         0.742429         0.617135
 H         3.578413        -1.880598         1.154468
 H         4.296493        -0.852834        -1.528898
 H         2.716723        -1.884288        -1.620773
 H         1.707512         1.238450        -2.419063
