19
Iteration:  4888
 C        -0.191054        -0.039571        -0.012921
 C         1.303143        -0.002530         0.209278
 C         1.966251         0.971924         1.164518
 C         3.272939         0.512682         0.523464
 C         3.199082        -1.095579         0.418808
 C         3.131798        -1.084054        -1.133228
 C         2.415147         0.244279        -0.950289
 O         2.508559         1.140719        -1.996830
 O         1.781759        -1.245670         0.647692
 H        -0.712751        -0.272830         0.963955
 H        -0.594131         0.853842        -0.526843
 H        -0.417047        -0.742276        -0.778147
 H         1.720486         1.934881         0.626288
 H         1.581435         0.956352         2.237930
 H         4.183004         0.995417         0.775070
 H         3.754960        -1.933507         0.911394
 H         4.002423        -0.879117        -1.795619
 H         2.434092        -1.797399        -1.642506
 H         2.768903         2.007264        -1.633730
