19
Iteration:  3351charge 0 multiplicity 1
 C        -0.232728         0.055387        -0.097831
 C         1.280903        -0.008310         0.192841
 C         2.074716         0.998507         1.115381
 C         3.259038         0.489987         0.420157
 C         3.220596        -1.143975         0.445125
 C         3.192911        -1.109463        -1.048050
 C         2.485062         0.259327        -0.956202
 O         2.366686         1.300207        -1.792066
 O         1.696849        -1.394297         0.589504
 H        -0.907025         0.133694         0.672970
 H        -0.402639         0.850120        -0.763493
 H        -0.421731        -0.852947        -0.841642
 H         1.851136         2.159133         0.940194
 H         1.977900         0.844744         2.252539
 H         4.252435         0.875572         0.506340
 H         3.715374        -1.955186         0.998020
 H         4.195052        -1.132689        -1.550245
 H         2.677696        -2.007922        -1.453288
 H         3.200049         1.626879        -2.184191
