19
Iteration:  2416
 C        -0.191238        -0.101298        -0.113547
 C         1.270704         0.019407         0.120762
 C         1.900620         0.979801         1.257546
 C         3.173817         0.454881         0.602829
 C         3.196088        -1.111609         0.399620
 C         3.221214        -1.014669        -1.151500
 C         2.547329         0.252640        -0.911903
 O         2.632696         1.281171        -1.931783
 O         1.655564        -1.278651         0.575130
 H        -0.475240        -0.322318         0.857693
 H        -0.782562         0.816318        -0.321945
 H        -0.474945        -0.969480        -0.769360
 H         1.613015         2.073349         1.075786
 H         1.597958         0.747700         2.290638
 H         4.216258         0.821557         0.878052
 H         3.806740        -1.787430         0.973844
 H         4.197214        -0.800196        -1.415697
 H         2.911614        -1.937132        -1.539329
 H         1.891015         1.107960        -2.584065
