19
Iteration:  2338charge 0 multiplicity 1
 C        -0.073730         0.065656        -0.442314
 C         1.304075        -0.085785         0.097656
 C         1.971459         0.908547         1.180877
 C         3.329192         0.457777         0.537565
 C         3.207613        -1.090338         0.428447
 C         3.184799        -1.051200        -1.120849
 C         2.491528         0.256174        -0.831972
 O         2.332859         1.314222        -1.727252
 O         1.722297        -1.331189         0.741041
 H        -0.800279         0.012161         0.272487
 H        -0.103126         1.028491        -0.900620
 H        -0.406466        -0.754893        -1.181551
 H         1.896206         2.019486         0.930518
 H         1.693362         0.611401         2.218661
 H         4.316037         0.915662         0.772005
 H         3.779633        -1.725866         1.084613
 H         4.120486        -0.985594        -1.589818
 H         2.551506        -1.892916        -1.424830
 H         1.621898         1.050064        -2.392989
