19
Iteration:  3875
 C        -0.201625        -0.100850         0.014460
 C         1.323049         0.069473         0.224677
 C         2.007932         1.061916         1.096931
 C         3.276461         0.487398         0.496493
 C         3.135511        -1.148959         0.392530
 C         3.148805        -1.190196        -1.121454
 C         2.525683         0.237355        -0.907698
 O         2.439382         1.296523        -1.864361
 O         1.702529        -1.274367         0.568664
 H        -0.451068        -0.170233         1.060794
 H        -0.579112         0.800175        -0.558193
 H        -0.504714        -0.996239        -0.738409
 H         1.887399         2.118472         0.802944
 H         1.851160         0.940789         2.121611
 H         4.310084         0.885362         0.594987
 H         3.615565        -1.807712         1.121340
 H         4.143806        -0.960265        -1.536488
 H         2.367181        -1.690045        -1.664519
 H         3.024598         1.069255        -2.632261
