19
Iteration:   873
 C        -0.154828         0.139517        -0.337275
 C         1.262213        -0.111263         0.227742
 C         1.885187         0.989225         1.113703
 C         3.231739         0.408272         0.530156
 C         3.121330        -1.154590         0.390465
 C         3.245467        -1.123363        -1.090051
 C         2.645661         0.348378        -0.889411
 O         2.394143         1.340605        -1.750622
 O         1.773100        -1.385671         0.715387
 H        -0.911788         0.474632         0.359420
 H        -0.009647         1.041386        -0.877951
 H        -0.476491        -0.634877        -0.993293
 H         1.570270         1.927348         0.733573
 H         1.717835         0.883951         2.195456
 H         4.277777         0.648430         0.745405
 H         3.796736        -1.759186         1.048188
 H         4.276496        -1.287672        -1.495766
 H         2.493586        -1.881171        -1.653386
 H         2.278350         0.889994        -2.637988
