19
Iteration:   705
 C        -0.163315         0.119440        -0.298229
 C         1.288880        -0.035095         0.139199
 C         2.064862         0.895142         1.205610
 C         3.335091         0.393118         0.563918
 C         3.133874        -1.158438         0.480846
 C         3.121252        -1.059710        -1.119160
 C         2.585724         0.315298        -0.867346
 O         2.377782         1.181267        -1.921736
 O         1.670961        -1.302310         0.679682
 H        -0.670247         0.311313         0.606641
 H        -0.153240         1.046110        -0.845295
 H        -0.547991        -0.719637        -0.902736
 H         1.780486         1.950724         0.796177
 H         1.883232         0.933471         2.328754
 H         4.358648         0.819403         0.790893
 H         3.590940        -1.908665         1.142274
 H         4.088602        -0.838112        -1.766108
 H         2.368583        -1.896191        -1.601977
 H         2.650807         2.125267        -1.742745
