19
Iteration:  4530
 C        -0.236250         0.067580         0.052839
 C         1.235250        -0.061686         0.073448
 C         1.992848         0.930558         1.088052
 C         3.222160         0.456468         0.398643
 C         3.100977        -1.102075         0.459967
 C         3.255576        -1.124550        -1.122056
 C         2.536805         0.221971        -0.933484
 O         2.494778         1.314736        -1.788807
 O         1.748103        -1.295088         0.628108
 H        -0.594798        -0.089986         1.065107
 H        -0.500750         1.052629        -0.445093
 H        -0.642334        -0.710909        -0.576825
 H         1.819395         1.960481         0.803657
 H         1.976493         0.650238         2.166642
 H         4.129031         1.077641         0.304102
 H         3.705267        -1.824620         1.165685
 H         4.194782        -0.797068        -1.602561
 H         3.247018        -2.048785        -1.697923
 H         2.020386         1.291862        -2.626493
