19
Iteration:   379charge 0 multiplicity 1
 C        -0.162702         0.102008        -0.266375
 C         1.329120         0.111137         0.197072
 C         2.078680         0.961697         1.180334
 C         3.319595         0.382305         0.485732
 C         3.024299        -1.201358         0.421694
 C         3.146655        -1.215439        -1.083994
 C         2.535069         0.293980        -0.875645
 O         2.467535         1.316457        -1.841573
 O         1.692917        -1.306649         0.661469
 H        -0.815580         0.040385         0.590351
 H        -0.426651         1.099443        -0.753248
 H        -0.228238        -0.711309        -1.057271
 H         1.851592         2.037996         0.891078
 H         1.790005         0.849944         2.242946
 H         4.497690         0.660023         0.466890
 H         3.529337        -1.976422         1.026534
 H         4.202297        -1.196176        -1.371268
 H         2.761371        -2.121882        -1.550636
 H         1.554584         1.486771        -2.114496
