19
Iteration:  2682
 C        -0.041240         0.010846        -0.279678
 C         1.345942        -0.031314         0.154565
 C         2.067111         0.990899         1.115544
 C         3.291139         0.384228         0.517610
 C         3.125767        -1.102807         0.449351
 C         3.234310        -1.037664        -1.090085
 C         2.526197         0.226287        -0.910022
 O         2.285945         1.307785        -1.780799
 O         1.650359        -1.358757         0.616695
 H        -0.707558        -0.111376         0.505964
 H        -0.421907         1.016128        -0.860617
 H        -0.157107        -0.937447        -0.780673
 H         1.780283         1.957341         0.660191
 H         1.846466         0.879349         2.210043
 H         4.283839         0.755708         0.656414
 H         3.647436        -1.742535         1.165433
 H         4.274255        -0.932975        -1.306017
 H         2.747054        -1.793784        -1.586408
 H         1.662871         1.969893        -1.337529
