19
Iteration:  1111charge 0 multiplicity 1
 C        -0.152582        -0.022252        -0.231671
 C         1.267506         0.041024         0.134083
 C         1.965855         0.989226         1.239281
 C         3.209376         0.484765         0.553166
 C         3.130413        -1.181036         0.420012
 C         3.270050        -1.003394        -1.093483
 C         2.558260         0.249005        -0.823926
 O         2.459394         1.187533        -1.887309
 O         1.624188        -1.306744         0.549807
 H        -0.858103        -0.098623         0.613689
 H        -0.555810         0.865756        -0.936003
 H        -0.266929        -1.016184        -0.709236
 H         1.774575         1.947339         0.889569
 H         1.855654         0.761993         2.312439
 H         4.162937         0.857974         0.691569
 H         3.700863        -1.845156         1.114465
 H         4.254676        -0.738852        -1.368292
 H         2.900324        -1.785853        -1.651759
 H         3.228630         1.802566        -1.739225
