19
Iteration:  4095
 C        -0.105209         0.167368        -0.238357
 C         1.361708        -0.003795         0.159749
 C         1.965905         0.939384         1.163821
 C         3.257622         0.500769         0.438739
 C         3.209195        -1.169922         0.469935
 C         3.153270        -1.143922        -1.130304
 C         2.484651         0.236445        -0.899232
 O         2.195847         1.164971        -1.824503
 O         1.823684        -1.300783         0.681713
 H        -0.676314        -0.198762         0.589884
 H        -0.344270         1.232907        -0.410149
 H        -0.258174        -0.649836        -1.080130
 H         1.920354         1.976263         0.908404
 H         2.003743         0.685878         2.243501
 H         4.204276         1.019373         0.623640
 H         3.759316        -1.692418         1.206712
 H         4.038541        -0.732178        -1.720457
 H         2.647016        -2.009675        -1.562114
 H         2.986433         1.752458        -1.895018
