19
Iteration:  4756charge 0 multiplicity 1
 C        -0.158731        -0.033869        -0.183125
 C         1.360067         0.065748         0.193532
 C         2.052379         1.080707         1.080292
 C         3.287929         0.481941         0.474458
 C         3.129377        -1.221720         0.448778
 C         3.182892        -1.122188        -1.162486
 C         2.526568         0.198318        -0.896206
 O         2.325264         1.283988        -1.765585
 O         1.738574        -1.293785         0.700492
 H        -0.879806        -0.241173         0.715980
 H        -0.507253         1.043874        -0.519307
 H        -0.328617        -0.743783        -0.949027
 H         1.764145         2.068364         0.641880
 H         1.918370         1.066284         2.199489
 H         4.379760         0.565978         0.339557
 H         3.827737        -1.660554         1.210698
 H         4.186598        -0.881246        -1.692325
 H         2.597596        -1.948946        -1.517419
 H         1.983500         1.037121        -2.650035
