19
Iteration:   283charge 0 multiplicity 1
 C        -0.183194         0.179323        -0.156443
 C         1.270984         0.033294         0.149034
 C         2.046198         0.980172         1.128546
 C         3.292314         0.366528         0.490265
 C         3.071103        -1.262705         0.421898
 C         3.273486        -1.176723        -1.103835
 C         2.499033         0.181601        -0.925962
 O         2.495415         1.318033        -1.811103
 O         1.635543        -1.244198         0.684474
 H        -0.757591        -0.007459         0.751371
 H        -0.374109         1.232876        -0.436289
 H        -0.444924        -0.433677        -0.975320
 H         2.071354         2.053042         0.862536
 H         1.764474         0.957939         2.228165
 H         4.250073         0.893509         0.465083
 H         3.500407        -2.122305         1.017915
 H         4.416396        -0.949068        -1.422028
 H         2.875676        -2.046450        -1.777396
 H         1.892263         1.156940        -2.532831
