19
Iteration:  1406charge 0 multiplicity 1
 C        -0.153093        -0.002419        -0.277538
 C         1.258696        -0.064570         0.174782
 C         1.930873         0.931170         1.117231
 C         3.219594         0.423432         0.521849
 C         3.156597        -1.107424         0.448033
 C         3.271405        -1.022041        -1.118834
 C         2.541041         0.309068        -0.833561
 O         2.444351         1.297525        -1.849330
 O         1.667746        -1.352654         0.715903
 H        -0.765768        -0.022834         0.530891
 H        -0.353951         1.058155        -0.756306
 H        -0.491005        -0.733658        -1.074855
 H         1.693249         1.932552         0.735633
 H         1.587527         0.839277         2.182563
 H         4.213296         0.752256         0.708394
 H         3.713426        -1.809700         1.065893
 H         4.329448        -0.843544        -1.579573
 H         2.745019        -1.749122        -1.761833
 H         3.356104         1.384297        -2.100827
