19
Iteration:  3444
 C        -0.145395         0.110349        -0.267354
 C         1.318597        -0.040035         0.090651
 C         1.923716         0.946842         1.113032
 C         3.318961         0.406306         0.501035
 C         3.189797        -1.163083         0.383961
 C         3.186039        -1.083209        -1.130785
 C         2.588830         0.221168        -0.892543
 O         2.321966         1.273283        -1.803854
 O         1.802831        -1.266330         0.815168
 H        -0.861018        -0.236094         0.513215
 H        -0.337807         1.217893        -0.393437
 H        -0.385502        -0.370966        -1.125981
 H         1.780991         1.946377         0.891117
 H         1.646610         0.725250         2.119554
 H         4.280833         0.999474         0.523254
 H         3.715583        -2.004321         0.869950
 H         4.211274        -1.153655        -1.453739
 H         2.565670        -1.877141        -1.573500
 H         1.357014         1.396140        -1.930019
