19
Iteration:  1933
 C        -0.154974        -0.017333        -0.179412
 C         1.335239         0.021578         0.093663
 C         1.921240         1.026453         1.082090
 C         3.310178         0.406809         0.519594
 C         3.059458        -1.235624         0.449400
 C         3.421750        -1.064103        -1.085993
 C         2.574756         0.260544        -0.822839
 O         2.310270         1.322607        -1.728565
 O         1.617492        -1.276220         0.580685
 H        -0.646906        -0.333228         0.694064
 H        -0.531754         0.862869        -0.577484
 H        -0.333757        -0.894185        -1.070609
 H         1.918020         1.966711         0.597056
 H         1.594740         0.991233         2.130748
 H         4.225815         0.982993         0.689742
 H         3.486677        -2.061383         1.036956
 H         4.504006        -0.718463        -1.281177
 H         3.089696        -1.898041        -1.768485
 H         2.756812         1.118669        -2.563831
