19
Iteration:  4741
 C        -0.117814         0.019813        -0.080186
 C         1.288798        -0.085653         0.162499
 C         1.978272         1.093031         1.049289
 C         3.297091         0.426290         0.439000
 C         3.173387        -1.101961         0.462311
 C         3.131273        -1.148835        -1.152788
 C         2.477673         0.248641        -0.867362
 O         2.436333         1.341628        -1.819305
 O         1.749556        -1.349903         0.702322
 H        -0.591894        -0.260856         0.803776
 H        -0.381583         0.988376        -0.409400
 H        -0.422375        -0.834718        -0.769466
 H         1.907850         2.107577         0.539540
 H         1.746136         1.218794         2.148274
 H         4.106360         1.127079         0.674735
 H         3.631414        -1.934796         0.922397
 H         4.113369        -1.176617        -1.575968
 H         2.603014        -1.890516        -1.781042
 H         2.101227         0.908946        -2.635123
