19
Iteration:  1378
 C        -0.103641        -0.043290        -0.350231
 C         1.289955         0.046742         0.121257
 C         2.011495         1.023785         1.128108
 C         3.298996         0.414786         0.635876
 C         3.142380        -1.206645         0.468532
 C         3.345795        -1.180238        -1.081906
 C         2.604031         0.268541        -0.844378
 O         2.217736         1.318280        -1.750104
 O         1.633471        -1.204612         0.581595
 H        -0.761122        -0.504657         0.546027
 H        -0.602255         0.808738        -0.642656
 H        -0.349422        -0.703499        -1.215254
 H         1.728783         2.043821         0.754527
 H         1.721221         0.914416         2.167977
 H         4.383459         0.789529         0.759601
 H         3.417136        -2.107916         1.034277
 H         4.334491        -0.963586        -1.450373
 H         2.947569        -2.007420        -1.727912
 H         3.012485         1.569244        -2.259102
