19
Iteration:  1885charge 0 multiplicity 1
 C        -0.121330        -0.001328        -0.218975
 C         1.280977        -0.011104         0.142103
 C         1.881200         0.872898         1.205468
 C         3.152722         0.521623         0.519292
 C         3.207645        -1.079418         0.430453
 C         3.173063        -1.083040        -1.069647
 C         2.538845         0.278264        -0.893880
 O         2.515769         1.289555        -1.850335
 O         1.690580        -1.329438         0.616581
 H        -0.813151        -0.360021         0.717735
 H        -0.455228         1.105380        -0.526190
 H        -0.421608        -0.632934        -1.128890
 H         1.656473         1.965227         1.054768
 H         1.823383         0.413476         2.182254
 H         4.149871         1.053894         0.629958
 H         3.854699        -1.767399         1.014135
 H         4.156784        -1.030360        -1.397369
 H         2.604174        -1.818561        -1.565024
 H         3.310365         1.271381        -2.426124
