19
Iteration:  1230charge 0 multiplicity 1
 C        -0.089252         0.009226        -0.333712
 C         1.317233        -0.036616         0.158325
 C         1.906325         1.042365         1.214807
 C         3.186623         0.532865         0.579540
 C         3.140900        -1.126002         0.459876
 C         3.209955        -1.131253        -1.159943
 C         2.557256         0.273560        -0.826120
 O         2.402833         1.270945        -1.832383
 O         1.704046        -1.392096         0.635391
 H        -0.844407        -0.059425         0.330823
 H        -0.342498         1.012620        -0.851115
 H        -0.343585        -0.773606        -0.991144
 H         1.683638         2.055084         1.016661
 H         1.691713         0.681600         2.232890
 H         4.158548         0.962778         0.563841
 H         3.860989        -1.719549         1.064160
 H         4.275718        -1.013169        -1.698873
 H         2.612888        -1.986082        -1.578093
 H         3.310387         1.540404        -1.854804
