19
Iteration:   577charge 0 multiplicity 1
 C        -0.079918         0.204048        -0.194815
 C         1.282904         0.005176         0.268554
 C         2.066933         0.922080         1.230545
 C         3.223252         0.472996         0.463830
 C         3.068658        -1.145035         0.389601
 C         3.118656        -1.128363        -1.151939
 C         2.510750         0.256432        -0.893010
 O         2.529477         1.171685        -1.934797
 O         1.663845        -1.322824         0.673976
 H        -0.847249        -0.090202         0.588324
 H        -0.155956         1.295114        -0.667340
 H        -0.183808        -0.554260        -1.031218
 H         1.899470         1.971275         1.188237
 H         1.981370         0.536462         2.261994
 H         4.275868         0.768307         0.650659
 H         3.770434        -1.809803         0.969722
 H         4.062238        -1.196116        -1.544987
 H         2.518107        -1.884913        -1.533685
 H         1.821252         1.864470        -1.872399
