19
Iteration:   607charge 0 multiplicity 1
 C        -0.209670         0.201700        -0.191047
 C         1.268873         0.076675         0.115091
 C         2.055567         0.903637         1.098151
 C         3.274581         0.411497         0.451543
 C         3.069140        -1.208521         0.435468
 C         3.170831        -1.142872        -1.136207
 C         2.505628         0.205732        -0.841910
 O         2.428311         1.192401        -1.837935
 O         1.746892        -1.270986         0.701513
 H        -0.658222        -0.258334         0.648947
 H        -0.450529         1.248937        -0.358815
 H        -0.524930        -0.410602        -1.080112
 H         2.032534         1.993882         1.014282
 H         1.828494         0.753441         2.152515
 H         4.352106         0.767651         0.686926
 H         3.699683        -1.790747         1.131293
 H         4.168290        -0.869164        -1.556824
 H         2.613327        -1.981953        -1.689043
 H         3.039299         1.957648        -1.749616
