19
Iteration:  1734charge 0 multiplicity 1
 C        -0.230636        -0.060625        -0.205093
 C         1.302594         0.055517         0.045326
 C         1.904889         0.933852         1.181203
 C         3.230165         0.444583         0.583318
 C         3.101790        -1.136235         0.429972
 C         3.332318        -1.095611        -1.027047
 C         2.562618         0.278964        -0.876716
 O         2.409402         1.304353        -1.843037
 O         1.676753        -1.282219         0.565400
 H        -0.573669        -0.367232         0.703018
 H        -0.502168         0.951116        -0.489219
 H        -0.300126        -0.794742        -1.046155
 H         1.762124         2.049756         1.002749
 H         1.678862         0.786764         2.231578
 H         4.286121         0.848169         0.747206
 H         3.692037        -1.804973         1.044800
 H         4.508703        -0.975005        -1.326519
 H         2.868287        -2.018309        -1.566417
 H         3.273697         1.463025        -2.241664
