19
Iteration:  2204
 C        -0.106042        -0.068672        -0.212888
 C         1.305575         0.062232         0.142409
 C         1.931656         0.958617         1.203928
 C         3.294816         0.417489         0.605054
 C         3.016551        -1.158576         0.440920
 C         3.232376        -0.971011        -1.118683
 C         2.610929         0.324172        -0.854807
 O         2.412569         1.284999        -1.894026
 O         1.678237        -1.336349         0.614636
 H        -0.796376        -0.143992         0.739864
 H        -0.327360         0.761444        -0.783312
 H        -0.189695        -0.937508        -0.800935
 H         1.643754         2.005871         1.086941
 H         1.713407         0.791028         2.328020
 H         4.315341         0.759218         0.620087
 H         3.637166        -1.956909         0.981509
 H         4.318415        -0.822481        -1.466601
 H         2.611840        -1.557358        -1.857615
 H         2.714967         0.692077        -2.654075
