19
Iteration:  1325charge 0 multiplicity 1
 C        -0.085238         0.118136        -0.369577
 C         1.256546        -0.018486         0.181243
 C         1.842849         0.922116         1.207000
 C         3.187419         0.410700         0.613921
 C         3.164645        -1.128037         0.332938
 C         3.239927        -1.044806        -1.172832
 C         2.582487         0.271414        -0.824315
 O         2.351931         1.185503        -1.852478
 O         1.793548        -1.326028         0.786930
 H        -1.123715        -0.129875         0.243628
 H        -0.199635         1.170013        -0.667748
 H        -0.153289        -0.571471        -1.224574
 H         1.744598         1.998745         0.865798
 H         1.562386         0.783558         2.277864
 H         4.170327         1.001432         0.621513
 H         3.814601        -1.826834         0.925345
 H         4.224830        -0.900510        -1.402677
 H         2.684527        -1.671033        -1.844174
 H         3.207524         1.548666        -2.164760
