19
Iteration:  4132charge 0 multiplicity 1
 C        -0.014605         0.009655        -0.362826
 C         1.319222         0.037017         0.190836
 C         2.164694         1.005807         1.187526
 C         3.338055         0.411358         0.465260
 C         3.126732        -1.197936         0.448685
 C         3.145031        -1.098454        -1.141335
 C         2.502229         0.289747        -0.823236
 O         2.091935         1.254484        -1.801784
 O         1.728730        -1.284021         0.762113
 H        -0.868308        -0.318510         0.358717
 H        -0.307990         0.859735        -0.979432
 H         0.037964        -0.716421        -1.202048
 H         1.823832         1.996831         0.861248
 H         2.139774         0.946830         2.257376
 H         4.317961         0.821092         0.735570
 H         3.817868        -1.861505         1.077186
 H         4.136541        -0.866605        -1.454442
 H         2.565073        -1.733110        -1.890666
 H         2.745614         1.392544        -2.502756
