19
Iteration:   265
 C        -0.165194         0.099537        -0.159612
 C         1.323592         0.067723         0.204847
 C         2.130644         1.017581         1.159350
 C         3.335113         0.291741         0.546814
 C         3.000754        -1.151928         0.455588
 C         3.168303        -1.098178        -1.093915
 C         2.599086         0.338379        -0.864626
 O         2.503423         1.256791        -1.956268
 O         1.571461        -1.322054         0.588541
 H        -0.821277        -0.168687         0.780466
 H        -0.624099         1.037355        -0.555673
 H        -0.377101        -0.695169        -0.941648
 H         1.897066         1.987991         0.745318
 H         2.005004         0.864702         2.244141
 H         4.321955         0.382716         0.918939
 H         3.688344        -1.795483         1.064528
 H         4.174541        -1.034197        -1.282745
 H         2.761563        -1.855405        -1.678126
 H         1.599872         1.081225        -2.205729
