19
Iteration:  3386
 C        -0.227331        -0.041373         0.032318
 C         1.289147         0.073602         0.080215
 C         1.905846         0.949057         1.113709
 C         3.242201         0.432883         0.523107
 C         3.103659        -1.196189         0.335232
 C         3.198220        -0.995401        -1.200904
 C         2.627683         0.277191        -0.945074
 O         2.518143         1.279203        -1.883867
 O         1.707334        -1.292147         0.766834
 H        -0.644219        -0.134572         0.945311
 H        -0.596166         0.909216        -0.393690
 H        -0.599813        -0.908507        -0.592062
 H         1.745250         2.084595         0.909390
 H         1.706325         0.651311         2.175052
 H         4.211711         0.858244         0.780425
 H         3.743418        -1.948330         0.940525
 H         4.305408        -0.899103        -1.439215
 H         2.639062        -1.664627        -1.834474
 H         2.737732         0.801902        -2.689033
