19
Iteration:  4571charge 0 multiplicity 1
 C        -0.218551        -0.035549        -0.017082
 C         1.304164        -0.009919         0.136308
 C         1.974061         0.984457         1.129809
 C         3.324778         0.483937         0.542772
 C         3.103710        -1.120597         0.396876
 C         3.155617        -1.083683        -1.190472
 C         2.547393         0.250694        -0.915262
 O         2.495945         1.287988        -1.889925
 O         1.762343        -1.298571         0.671140
 H        -0.975553        -0.161207         0.825425
 H        -0.487873         1.010756        -0.430762
 H        -0.563359        -0.767892        -0.704992
 H         1.752708         1.991308         0.868677
 H         1.670711         0.797262         2.187655
 H         4.360723         0.837267         0.817524
 H         3.680604        -1.855073         0.983557
 H         4.259715        -0.858803        -1.538054
 H         2.616846        -1.851518        -1.809748
 H         1.796755         0.933166        -2.501932
