19
Iteration:  3844
 C        -0.201295         0.030694        -0.146781
 C         1.288825         0.024554         0.191832
 C         2.078503         0.938872         1.086037
 C         3.340883         0.424575         0.480135
 C         3.175810        -1.193298         0.383638
 C         3.264575        -1.104801        -1.109965
 C         2.477987         0.185918        -0.931741
 O         2.265837         1.316642        -1.898479
 O         1.668957        -1.249358         0.799132
 H        -0.609972        -0.154156         0.803518
 H        -0.474693         1.095909        -0.422838
 H        -0.582383        -0.878353        -0.811436
 H         1.974490         2.012041         0.836833
 H         1.907412         0.875624         2.198056
 H         4.322246         0.960260         0.508595
 H         3.648775        -1.846795         1.094536
 H         4.306388        -0.959102        -1.573322
 H         2.852382        -1.759366        -1.952127
 H         3.111843         1.433448        -2.333729
