19
Iteration:  3334
 C        -0.132226         0.054726        -0.263148
 C         1.311689         0.012149         0.191780
 C         2.101296         0.971337         1.189234
 C         3.329685         0.416155         0.437618
 C         3.082321        -1.141680         0.406231
 C         3.246685        -1.149313        -1.146562
 C         2.523927         0.225811        -0.850905
 O         2.205067         1.251804        -1.825690
 O         1.703282        -1.277477         0.676970
 H        -0.753753        -0.005642         0.728500
 H        -0.332102         1.000096        -0.881664
 H        -0.482081        -0.739500        -0.861222
 H         1.896715         1.948895         0.945737
 H         2.061257         0.812779         2.234628
 H         4.382907         0.784179         0.340968
 H         3.653768        -1.644219         1.241441
 H         4.275249        -0.872578        -1.387967
 H         2.806910        -1.902484        -1.786293
 H         2.913497         1.888400        -1.574506
