19
Iteration:  2274charge 0 multiplicity 1
 C        -0.227213         0.024433        -0.233825
 C         1.308936        -0.060546         0.141011
 C         1.867041         0.948385         1.122782
 C         3.255923         0.463150         0.533426
 C         3.200983        -1.194408         0.461018
 C         3.265375        -1.101436        -1.127354
 C         2.548217         0.296560        -0.867982
 O         2.502702         1.347707        -1.804534
 O         1.746923        -1.333598         0.666081
 H        -0.800334        -0.321370         0.512410
 H        -0.524463         1.136795        -0.346575
 H        -0.449469        -0.509213        -1.256781
 H         1.700921         2.013176         0.761735
 H         1.405165         0.924420         2.112140
 H         4.278338         0.923425         0.568314
 H         3.751567        -1.887393         1.085028
 H         4.204348        -1.016486        -1.574261
 H         2.723717        -1.915461        -1.536563
 H         1.624270         1.446026        -2.261284
