19
Iteration:  4832
 C        -0.153959         0.062933        -0.157405
 C         1.315259        -0.005915         0.161551
 C         2.020264         1.031118         1.103493
 C         3.266513         0.433046         0.438334
 C         3.145335        -1.099585         0.448257
 C         3.281173        -1.147207        -1.112154
 C         2.472805         0.298092        -0.846951
 O         2.335643         1.177244        -1.901694
 O         1.780029        -1.342980         0.699264
 H        -0.736878        -0.066539         0.814948
 H        -0.410591         1.124810        -0.419203
 H        -0.577799        -0.683031        -0.720283
 H         2.038186         2.143565         0.897848
 H         1.594915         0.822990         2.152384
 H         4.272617         0.846358         0.505631
 H         3.729718        -1.833147         1.020096
 H         4.229573        -0.880540        -1.668120
 H         2.813246        -1.912853        -1.710518
 H         1.560561         1.747381        -1.865185
