19
Iteration:  4841charge 0 multiplicity 1
 C        -0.178806         0.051034        -0.074487
 C         1.282221         0.011371         0.175015
 C         1.995536         0.977270         1.094232
 C         3.248389         0.396889         0.455184
 C         3.159343        -1.116631         0.406677
 C         3.262265        -1.089884        -1.084642
 C         2.552278         0.228158        -0.932975
 O         2.344958         1.218667        -1.934342
 O         1.738186        -1.278649         0.694206
 H        -0.602860        -0.129889         0.904108
 H        -0.536188         0.984198        -0.527919
 H        -0.455264        -0.691705        -0.791443
 H         1.913416         2.057453         0.755991
 H         1.877878         0.849381         2.239797
 H         4.302342         0.790554         0.386376
 H         3.820427        -1.744171         0.995422
 H         4.400258        -0.935653        -1.146926
 H         2.998928        -1.990309        -1.585963
 H         1.622736         1.802215        -1.669556
