19
Iteration:   417charge 0 multiplicity 1
 C        -0.190421         0.291653        -0.208574
 C         1.277860         0.009013         0.083925
 C         1.956656         0.945783         1.044521
 C         3.332342         0.359733         0.533605
 C         3.110420        -1.195890         0.420001
 C         3.185449        -1.176369        -1.160495
 C         2.486100         0.175415        -0.843912
 O         2.495439         1.270215        -1.738815
 O         1.769033        -1.297056         0.719680
 H        -0.800648        -0.096768         0.630106
 H        -0.364988         1.313093        -0.394000
 H        -0.587564        -0.283680        -1.023330
 H         1.774851         2.012693         0.824638
 H         1.696223         0.932626         2.123334
 H         4.231500         0.858564         0.478205
 H         3.768614        -1.820645         1.016097
 H         4.296576        -0.972520        -1.502672
 H         2.547971        -2.007779        -1.653596
 H         1.841014         1.112751        -2.421974
