19
Iteration:   818
 C        -0.232790        -0.028611        -0.309513
 C         1.252703         0.016326         0.160430
 C         2.136610         1.003030         1.273174
 C         3.290380         0.463818         0.554748
 C         3.063702        -1.207189         0.482065
 C         3.300209        -1.105434        -1.088026
 C         2.581843         0.325141        -0.940535
 O         2.370326         1.268571        -1.927872
 O         1.604945        -1.304261         0.662695
 H        -0.818287        -0.372429         0.536954
 H        -0.684684         0.898854        -0.642653
 H        -0.420295        -0.674745        -1.119256
 H         1.921404         2.014318         1.172468
 H         2.020999         0.727286         2.319015
 H         4.241255         0.927854         0.676208
 H         3.547449        -1.860240         1.228625
 H         4.387069        -1.053172        -1.285688
 H         2.804411        -1.836279        -1.886105
 H         3.203459         1.729250        -2.154423
