19
Iteration:   692
 C        -0.084293         0.167089        -0.283213
 C         1.321163        -0.015682         0.200952
 C         1.988971         0.925729         1.207996
 C         3.301886         0.425819         0.490656
 C         3.119065        -1.147635         0.412546
 C         3.100473        -1.084711        -1.066184
 C         2.506028         0.291391        -0.852272
 O         2.464667         1.242891        -1.982449
 O         1.684128        -1.395146         0.726883
 H        -0.888006         0.308749         0.500409
 H        -0.179293         1.007539        -0.924820
 H        -0.469570        -0.707898        -0.890231
 H         1.947443         2.114185         1.074635
 H         1.734112         0.569989         2.258978
 H         4.396621         0.784527         0.602011
 H         3.850702        -1.765156         0.956281
 H         4.183392        -1.265698        -1.518425
 H         2.361238        -1.888272        -1.554568
 H         2.172399         2.061941        -1.551160
