19
Iteration:  2100
 C        -0.196745        -0.038848        -0.163446
 C         1.280090         0.016312         0.114410
 C         1.975656         0.898445         1.200695
 C         3.257325         0.447020         0.533830
 C         3.091259        -1.093519         0.400481
 C         3.188247        -1.039845        -1.096346
 C         2.489133         0.315815        -0.864888
 O         2.470810         1.229494        -1.870261
 O         1.744646        -1.251239         0.611049
 H        -0.672979        -0.389483         0.688057
 H        -0.479851         1.029444        -0.556470
 H        -0.347508        -0.827906        -1.019253
 H         1.750011         1.949490         1.035596
 H         1.672157         0.442102         2.110205
 H         4.191918         1.012190         0.627665
 H         3.527576        -1.808857         1.113174
 H         4.297459        -0.989047        -1.290595
 H         2.700167        -1.855651        -1.679283
 H         3.417774         1.260698        -2.187998
