19
Iteration:  4246
 C        -0.168813        -0.003200        -0.098040
 C         1.337933         0.034644         0.154390
 C         2.030865         0.935128         1.170252
 C         3.319663         0.485527         0.497788
 C         3.080093        -1.101779         0.447866
 C         3.212150        -1.066935        -1.136341
 C         2.524604         0.269432        -0.940979
 O         2.354618         1.206860        -1.989832
 O         1.746949        -1.339467         0.712667
 H        -0.705624        -0.230869         0.784869
 H        -0.427889         1.005870        -0.449979
 H        -0.360456        -0.693363        -0.950606
 H         1.728127         1.991380         1.056140
 H         1.865885         0.700431         2.280254
 H         4.315020         0.902309         0.643344
 H         3.485029        -1.862004         1.045101
 H         4.274524        -0.981216        -1.535962
 H         2.760912        -1.826214        -1.757642
 H         1.931748         2.011139        -1.634315
