19
Iteration:  4737
 C        -0.134022        -0.008314        -0.061376
 C         1.287770        -0.078899         0.150427
 C         1.950805         1.016275         1.028062
 C         3.296228         0.456011         0.434966
 C         3.158468        -1.090621         0.379789
 C         3.129747        -1.120379        -1.120482
 C         2.481817         0.275366        -0.865701
 O         2.472489         1.329468        -1.820583
 O         1.742575        -1.335313         0.723315
 H        -0.694257        -0.172921         0.913547
 H        -0.259667         1.068088        -0.297094
 H        -0.503621        -0.811604        -0.712812
 H         2.052437         1.971783         0.572516
 H         1.741990         1.199236         2.039515
 H         4.119058         1.107337         0.627521
 H         3.731962        -1.854125         0.998786
 H         4.178728        -1.243758        -1.440511
 H         2.548996        -1.927658        -1.677026
 H         2.124353         0.900806        -2.620328
