19
Iteration:   267charge 0 multiplicity 1
 C        -0.173381         0.109355        -0.156864
 C         1.323932         0.065608         0.203211
 C         2.122762         1.014242         1.166710
 C         3.333012         0.295030         0.546891
 C         3.006521        -1.156529         0.443821
 C         3.184938        -1.123717        -1.095504
 C         2.584487         0.335105        -0.870687
 O         2.502770         1.268388        -1.948280
 O         1.570916        -1.320339         0.602050
 H        -0.805025        -0.163644         0.713547
 H        -0.595918         1.033757        -0.533274
 H        -0.424077        -0.690028        -0.935298
 H         1.900359         1.968355         0.666881
 H         2.005489         0.882507         2.218763
 H         4.431872         0.357985         0.935806
 H         3.656246        -1.732284         1.061172
 H         4.191889        -0.959734        -1.282463
 H         2.798553        -1.895955        -1.695999
 H         1.604989         1.099750        -2.271400
