19
Iteration:   785charge 0 multiplicity 1
 C        -0.071732         0.062418        -0.226583
 C         1.278965         0.011553         0.122649
 C         1.914266         1.002536         1.197360
 C         3.215689         0.445841         0.585771
 C         3.167953        -1.186973         0.417519
 C         3.114755        -1.117313        -1.158382
 C         2.467321         0.219522        -0.860174
 O         2.570844         1.200446        -1.898023
 O         1.745903        -1.265353         0.660623
 H        -0.639750        -0.389465         0.558061
 H        -0.391181         1.114676        -0.367023
 H        -0.240783        -0.526036        -1.084698
 H         1.730135         1.979602         0.949159
 H         1.604443         0.784259         2.202637
 H         4.071555         1.040415         0.700926
 H         3.632775        -1.876978         1.124195
 H         4.095510        -1.024662        -1.616622
 H         2.458505        -1.854537        -1.756948
 H         2.100863         2.068700        -1.659788
