19
Iteration:  3090charge 0 multiplicity 1
 C        -0.215533         0.064722        -0.143249
 C         1.282152         0.007120         0.166348
 C         2.002403         1.007645         1.196386
 C         3.272496         0.427203         0.470369
 C         3.185864        -1.120734         0.372299
 C         3.172381        -1.113364        -1.137374
 C         2.486853         0.232585        -0.852364
 O         2.398493         1.221002        -1.854399
 O         1.759482        -1.320981         0.653945
 H        -0.761083        -0.218635         0.680554
 H        -0.491497         1.075465        -0.317560
 H        -0.517634        -0.577236        -1.077914
 H         1.732910         1.905609         0.716286
 H         1.847607         0.967334         2.206340
 H         4.231448         0.982878         0.409190
 H         3.766340        -1.838683         0.927346
 H         4.114077        -1.067337        -1.632615
 H         2.617331        -1.950662        -1.574257
 H         3.218351         1.788506        -1.805505
