19
Iteration:  1592
 C        -0.166693         0.027474        -0.180188
 C         1.269808        -0.069322         0.083207
 C         1.871696         0.879939         1.038659
 C         3.253457         0.446598         0.524732
 C         3.159581        -1.128612         0.493558
 C         3.359056        -1.114947        -0.995008
 C         2.593048         0.236423        -0.907098
 O         2.358659         1.450676        -1.784933
 O         1.657993        -1.372962         0.580483
 H        -0.662029         0.021352         0.730873
 H        -0.399169         1.065200        -0.677753
 H        -0.744369        -0.741930        -0.851480
 H         1.776747         1.951963         0.637557
 H         1.666980         0.937749         2.106630
 H         4.263210         0.924259         0.524985
 H         3.739236        -1.647885         1.285645
 H         4.362124        -1.054192        -1.234130
 H         2.980500        -1.987045        -1.516073
 H         3.190752         1.489563        -2.237511
