19
Iteration:  2913charge 0 multiplicity 1
 C        -0.267204         0.073997        -0.062903
 C         1.273325        -0.059539         0.092955
 C         1.918494         0.860366         1.117699
 C         3.246725         0.460876         0.511208
 C         3.161344        -1.147193         0.462054
 C         3.207523        -1.064279        -1.163027
 C         2.561685         0.284488        -0.944645
 O         2.511963         1.304653        -1.954068
 O         1.757202        -1.367598         0.705816
 H        -0.567257        -0.249712         0.858066
 H        -0.534110         1.177356        -0.138223
 H        -0.870681        -0.603616        -0.807132
 H         1.517634         1.872443         0.766665
 H         1.827874         0.827414         2.209191
 H         4.315821         0.940316         0.709249
 H         3.964110        -1.675360         1.066124
 H         4.256143        -0.930208        -1.557399
 H         2.688131        -1.883138        -1.683719
 H         2.404820         2.153315        -1.428300
