19
Iteration:   186
 C        -0.073858         0.156836        -0.212070
 C         1.373785         0.077632         0.153644
 C         2.021648         1.065857         1.088262
 C         3.273367         0.383316         0.513954
 C         3.030297        -1.203740         0.415090
 C         3.223951        -1.168492        -1.107864
 C         2.561543         0.185215        -0.875523
 O         2.305357         1.191009        -1.788743
 O         1.647604        -1.303133         0.642627
 H        -0.844036         0.008184         0.645782
 H        -0.283010         1.194491        -0.661986
 H        -0.201092        -0.570217        -1.026026
 H         2.029847         2.126453         0.848718
 H         1.713568         1.038811         2.167574
 H         4.262679         0.698746         0.652689
 H         3.676749        -1.923528         0.992204
 H         4.263191        -1.104931        -1.380365
 H         2.654263        -1.860858        -1.705793
 H         3.069369         1.754789        -1.708505
