19
Iteration:  1076
 C        -0.166963         0.057165        -0.240304
 C         1.328859        -0.024303         0.123000
 C         1.872785         0.944702         1.108387
 C         3.222562         0.449864         0.536800
 C         3.139778        -1.200947         0.437615
 C         3.294564        -1.141662        -1.125678
 C         2.615044         0.304803        -0.897315
 O         2.436081         1.315790        -1.855957
 O         1.663479        -1.339632         0.711416
 H        -0.836710         0.205380         0.600487
 H        -0.476620         0.813168        -1.123647
 H        -0.325870        -0.881108        -0.778554
 H         1.581531         1.944752         0.844072
 H         1.717690         0.911275         2.153660
 H         4.122651         1.039130         0.925047
 H         3.757846        -1.894902         1.025583
 H         4.358020        -1.103340        -1.510289
 H         2.728505        -1.913406        -1.667408
 H         2.627994         2.114694        -1.276571
