19
Iteration:  3313charge 0 multiplicity 1
 C         0.006877         0.141054        -0.325300
 C         1.355856         0.024923         0.176283
 C         2.035100         0.973161         1.123417
 C         3.348518         0.321351         0.556442
 C         3.126209        -1.230427         0.401248
 C         3.177516        -1.047434        -1.154424
 C         2.537090         0.254393        -0.849045
 O         2.105594         1.190968        -1.891980
 O         1.738650        -1.245353         0.806302
 H        -0.803250        -0.201604         0.518476
 H        -0.122199         1.135068        -0.923677
 H        -0.112320        -0.630965        -0.999704
 H         2.087495         1.999671         1.004541
 H         1.727075         0.620635         2.083642
 H         4.299260         0.890701         0.780691
 H         3.794697        -2.074021         0.683211
 H         4.197902        -0.869058        -1.470156
 H         2.563196        -1.774955        -1.685833
 H         2.333005         2.060200        -1.567724
