19
Iteration:  1698charge 0 multiplicity 1
 C        -0.110832         0.084319        -0.367035
 C         1.288701        -0.082362         0.017763
 C         1.886242         0.971327         1.065146
 C         3.266553         0.412322         0.553354
 C         3.185896        -1.135111         0.437980
 C         3.270338        -1.050160        -1.075865
 C         2.473849         0.259333        -0.826507
 O         2.299337         1.310041        -1.709122
 O         1.751355        -1.401506         0.738553
 H        -1.003683        -0.256932         0.299865
 H        -0.365263         1.253268        -0.547800
 H        -0.386238        -0.264152        -1.268440
 H         1.985101         1.907126         0.515209
 H         1.751173         1.124088         2.136586
 H         4.246375         0.818422         0.659553
 H         3.855980        -1.737842         1.091033
 H         4.432937        -0.927183        -1.258462
 H         2.884559        -1.983337        -1.565145
 H         3.176509         1.540938        -1.991058
