19
Iteration:  1650
 C        -0.053103        -0.037651        -0.454862
 C         1.341936         0.083588         0.136335
 C         2.018291         0.892977         1.298555
 C         3.297150         0.464780         0.626372
 C         3.072078        -1.153104         0.497804
 C         3.188047        -0.988069        -1.048427
 C         2.535023         0.276171        -0.857882
 O         2.278824         1.274541        -1.906033
 O         1.686532        -1.313168         0.624997
 H        -0.827430        -0.125421         0.433184
 H        -0.398832         0.781172        -0.982253
 H        -0.171189        -0.998958        -1.191384
 H         1.828775         1.963708         1.273743
 H         1.988223         0.380136         2.296841
 H         4.370067         0.689974         0.868702
 H         3.682118        -1.849176         1.058746
 H         4.163853        -0.830234        -1.252074
 H         2.675724        -1.738759        -1.586162
 H         2.968261         1.421542        -2.603589
