19
Iteration:  3491charge 0 multiplicity 1
 C        -0.097625         0.011971        -0.306258
 C         1.291383         0.099951         0.201248
 C         2.114966         0.964726         1.213624
 C         3.285087         0.493951         0.373991
 C         3.162216        -1.185204         0.399566
 C         3.200841        -1.151466        -1.096136
 C         2.504047         0.259880        -0.770347
 O         2.301059         1.194154        -1.770604
 O         1.718268        -1.219139         0.611172
 H        -0.891502        -0.209208         0.548160
 H        -0.394503         0.914976        -0.782662
 H        -0.230763        -0.890606        -1.053378
 H         1.923031         2.060939         1.203666
 H         1.993690         0.656391         2.246582
 H         4.320886         0.826646         0.497300
 H         3.560769        -1.759710         1.230915
 H         4.194764        -0.794854        -1.433072
 H         2.790446        -1.923759        -1.781991
 H         1.423290         1.131477        -2.118824
