19
Iteration:  2716
 C        -0.267424         0.046786        -0.104261
 C         1.283900        -0.036160         0.131600
 C         1.888079         0.899713         1.167507
 C         3.227634         0.487189         0.505040
 C         3.166105        -1.121943         0.342013
 C         3.217366        -1.005347        -1.173471
 C         2.565599         0.249844        -0.917228
 O         2.575844         1.277144        -1.816901
 O         1.765067        -1.328490         0.699751
 H        -0.728651        -0.114948         0.872063
 H        -0.802548         0.923291        -0.671665
 H        -0.575710        -0.812173        -0.772336
 H         1.670984         2.008592         1.113347
 H         1.700758         0.584633         2.200216
 H         4.226293         0.965974         0.585630
 H         3.709533        -1.824042         0.917013
 H         4.248912        -0.976618        -1.434838
 H         2.761555        -1.786795        -1.627669
 H         1.898357         1.149727        -2.527784
