19
Iteration:   747charge 0 multiplicity 1
 C        -0.152371         0.103884        -0.222403
 C         1.334117        -0.037517         0.136904
 C         2.063482         0.942477         1.084361
 C         3.257668         0.374254         0.483459
 C         3.059504        -1.185898         0.524694
 C         3.268779        -1.130456        -1.088759
 C         2.519715         0.210274        -0.890994
 O         2.401286         1.401283        -1.780795
 O         1.636281        -1.268731         0.648211
 H        -0.798073        -0.152496         0.682010
 H        -0.436407         1.028410        -0.695175
 H        -0.494509        -0.705081        -0.971834
 H         1.940096         2.091130         0.789355
 H         2.056552         0.826314         2.217121
 H         4.331490         0.787599         0.556612
 H         3.597690        -1.917916         1.151310
 H         4.385015        -0.900972        -1.253574
 H         2.882734        -1.933849        -1.829483
 H         2.247014         0.971810        -2.653716
