19
Iteration:  3054charge 0 multiplicity 1
 C        -0.108130        -0.037054         0.016273
 C         1.314789         0.012470         0.121871
 C         1.958513         0.906667         1.183762
 C         3.247187         0.478436         0.525876
 C         3.049822        -1.181975         0.405132
 C         3.211998        -1.059456        -1.131499
 C         2.510215         0.331034        -0.965701
 O         2.495812         1.323142        -1.939771
 O         1.652668        -1.273773         0.639143
 H        -0.476208        -0.156250         1.081505
 H        -0.535759         0.909123        -0.498184
 H        -0.489692        -0.949052        -0.532659
 H         1.727619         1.935357         0.967819
 H         1.850567         0.799656         2.224693
 H         4.360890         0.780817         0.526992
 H         3.480423        -2.005060         0.995998
 H         4.330144        -0.970212        -1.137907
 H         2.818112        -1.940668        -1.710591
 H         2.868955         0.948893        -2.788242
