19
Iteration:  3554charge 0 multiplicity 1
 C        -0.289069        -0.036062         0.026070
 C         1.231278        -0.030719         0.128724
 C         1.955948         1.058501         1.099702
 C         3.233216         0.404438         0.372895
 C         3.224878        -1.091971         0.332519
 C         3.262404        -1.091828        -1.091673
 C         2.448610         0.220376        -0.917488
 O         2.541489         1.282905        -1.743434
 O         1.729194        -1.286406         0.613266
 H        -0.695651        -0.121768         1.071258
 H        -0.553192         0.946106        -0.337845
 H        -0.616827        -0.736838        -0.568954
 H         2.014862         2.049920         0.778306
 H         1.809433         0.934334         2.142331
 H         4.254527         0.915835         0.424576
 H         3.728288        -1.692779         1.073939
 H         4.234851        -0.954057        -1.513168
 H         2.725546        -1.935802        -1.549142
 H         2.489155         0.994093        -2.655321
