19
Iteration:  4194charge 0 multiplicity 1
 C        -0.193120         0.015584         0.019061
 C         1.308173        -0.072546         0.169487
 C         1.929943         0.930626         1.107695
 C         3.164521         0.458871         0.436106
 C         3.163655        -1.109738         0.352483
 C         3.197030        -1.037903        -1.114501
 C         2.575363         0.296251        -0.934285
 O         2.424503         1.238586        -1.944633
 O         1.739422        -1.327073         0.724382
 H        -0.683432         0.091797         0.957062
 H        -0.233149         0.971948        -0.380987
 H        -0.671834        -0.808164        -0.606045
 H         1.663533         1.882333         0.681861
 H         1.823392         0.858752         2.212986
 H         4.148576         0.797537         0.662183
 H         3.840039        -1.759919         0.928524
 H         4.262761        -0.862686        -1.367700
 H         2.781662        -1.791698        -1.808793
 H         3.221039         1.791269        -1.999572
