19
Iteration:   229charge 0 multiplicity 1
 C        -0.133846         0.184948        -0.263060
 C         1.264357         0.082784         0.182013
 C         1.986432         0.950963         1.198151
 C         3.279948         0.371721         0.497206
 C         3.121347        -1.149784         0.396382
 C         3.073075        -1.176655        -1.171095
 C         2.530873         0.217451        -0.903422
 O         2.539198         1.189733        -1.888620
 O         1.725527        -1.245618         0.733356
 H        -0.694117        -0.077278         0.695028
 H        -0.377279         1.218204        -0.655185
 H        -0.270258        -0.618285        -0.969898
 H         1.765830         2.031650         1.282609
 H         1.755797         0.562916         2.236693
 H         4.260510         0.676526         0.693677
 H         3.729237        -1.891268         0.991634
 H         4.181764        -1.018462        -1.458761
 H         2.612578        -2.093003        -1.619938
 H         1.867061         1.859299        -1.757834
