19
Iteration:  4879charge 0 multiplicity 1
 C        -0.217584        -0.034661         0.009286
 C         1.302566         0.042502         0.119421
 C         1.955799         1.024046         1.163740
 C         3.246550         0.398612         0.478837
 C         3.170387        -1.103679         0.364488
 C         3.171465        -1.029448        -1.071924
 C         2.522371         0.292297        -0.929909
 O         2.473008         1.128244        -1.984610
 O         1.746837        -1.287802         0.649643
 H        -0.744610        -0.327911         0.954508
 H        -0.723716         0.872768        -0.320508
 H        -0.460570        -0.995764        -0.586045
 H         1.740501         2.052080         0.826272
 H         1.867058         1.044043         2.239478
 H         4.195109         0.865643         0.520350
 H         3.901161        -1.644870         0.988504
 H         4.192637        -1.048377        -1.415236
 H         2.615091        -1.819717        -1.691846
 H         2.610901         2.008255        -1.581543
