19
Iteration:  3504
 C        -0.190729         0.025942        -0.237979
 C         1.319709         0.030444         0.140253
 C         2.074103         0.931745         1.241383
 C         3.349361         0.424690         0.516957
 C         3.124741        -1.074516         0.474646
 C         3.213648        -1.108077        -1.168075
 C         2.473188         0.225549        -0.957471
 O         2.370240         1.280888        -1.853869
 O         1.704750        -1.252364         0.708767
 H        -0.777135        -0.149439         0.683447
 H        -0.601599         0.898262        -0.768820
 H        -0.266181        -0.976357        -0.941936
 H         1.987213         2.083645         1.192746
 H         2.025233         0.481661         2.270817
 H         4.290684         0.906963         0.544842
 H         3.735621        -1.778449         1.070581
 H         4.235624        -0.905185        -1.607478
 H         2.760749        -1.995302        -1.634525
 H         1.570928         1.050332        -2.409270
