19
Iteration:  1122charge 0 multiplicity 1
 C        -0.187999         0.004503        -0.239833
 C         1.272275         0.034602         0.253184
 C         1.896614         0.960632         1.219553
 C         3.283249         0.519375         0.539256
 C         3.078605        -1.124656         0.449029
 C         3.331185        -1.153021        -1.085857
 C         2.575182         0.264854        -0.926607
 O         2.428018         1.265330        -1.899109
 O         1.653066        -1.326532         0.587981
 H        -0.851311        -0.178454         0.619491
 H        -0.363815         0.978379        -0.960898
 H        -0.147218        -0.831642        -0.979350
 H         1.601277         1.947384         1.292970
 H         1.605600         0.547052         2.204207
 H         4.233348         0.908123         0.608699
 H         3.594774        -1.936458         1.027714
 H         4.350002        -0.946967        -1.319611
 H         2.933126        -1.787057        -1.787095
 H         3.277892         1.738077        -2.041745
