19
Iteration:  4330charge 0 multiplicity 1
 C        -0.124667         0.021334        -0.178960
 C         1.293630        -0.011588         0.155976
 C         2.002035         1.047644         1.087666
 C         3.321029         0.372804         0.438272
 C         3.217532        -1.181455         0.389260
 C         3.196212        -1.104921        -1.156798
 C         2.504799         0.275802        -0.881675
 O         2.321635         1.315110        -1.782261
 O         1.713212        -1.301374         0.763006
 H        -0.787074        -0.096500         0.780242
 H        -0.589058         1.030599        -0.504813
 H        -0.531878        -0.776805        -0.764478
 H         1.965708         2.105868         0.833538
 H         1.858694         0.824041         2.121356
 H         4.367517         0.739198         0.608042
 H         3.739653        -1.844077         1.059188
 H         4.222409        -0.808041        -1.430890
 H         2.699295        -1.784504        -1.809660
 H         2.098390         0.891908        -2.631132
