19
Iteration:  4065charge 0 multiplicity 1
 C        -0.273283         0.057281        -0.007046
 C         1.289717        -0.044492         0.191795
 C         1.989602         0.978133         1.121441
 C         3.299601         0.478606         0.448389
 C         3.178861        -1.182305         0.452437
 C         3.332594        -1.114830        -1.158128
 C         2.560474         0.285384        -0.942570
 O         2.324941         1.264843        -1.933223
 O         1.662447        -1.312573         0.665490
 H        -0.733363        -0.158865         1.001391
 H        -0.639198         0.948033        -0.476257
 H        -0.577506        -0.732732        -0.785778
 H         1.848130         1.981034         0.819440
 H         1.975914         0.879618         2.202290
 H         4.305211         0.786099         0.662187
 H         3.650463        -1.721781         1.295056
 H         4.240996        -0.720200        -1.477528
 H         2.930551        -1.969803        -1.732950
 H         3.189076         1.511276        -2.312009
