19
Iteration:  1336
 C        -0.049016         0.081827        -0.411275
 C         1.320060        -0.067135         0.167153
 C         1.854455         0.906083         1.185710
 C         3.286298         0.518653         0.493174
 C         3.164449        -1.206888         0.399176
 C         3.255664        -1.042770        -1.151908
 C         2.488047         0.263494        -0.820122
 O         2.318840         1.215085        -1.785782
 O         1.709592        -1.284223         0.772569
 H        -0.961683        -0.251694         0.360033
 H        -0.122445         1.168323        -0.615117
 H        -0.151003        -0.280007        -1.444542
 H         1.671752         2.006971         0.999781
 H         1.655433         0.650255         2.257105
 H         4.228767         1.125180         0.748633
 H         3.766216        -1.892668         1.052943
 H         4.168797        -0.942007        -1.564075
 H         2.750341        -1.805116        -1.734156
 H         3.219058         1.417053        -1.992444
