19
Iteration:  1249charge 0 multiplicity 1
 C        -0.159812         0.023187        -0.290749
 C         1.281748        -0.100459         0.165151
 C         1.893880         0.888281         1.059393
 C         3.258125         0.405549         0.526263
 C         3.145161        -1.145393         0.466155
 C         3.195519        -0.941751        -1.055470
 C         2.549925         0.307138        -0.871324
 O         2.425124         1.283223        -1.801550
 O         1.723108        -1.345960         0.654877
 H        -0.834830         0.201387         0.613061
 H        -0.272262         0.941406        -0.772864
 H        -0.459136        -0.850961        -0.847831
 H         1.747096         1.878741         0.461596
 H         1.690315         1.148582         2.119062
 H         4.239368         1.014535         0.776546
 H         3.709441        -1.938461         1.011990
 H         4.313003        -0.810592        -1.168040
 H         2.722050        -1.807354        -1.586839
 H         3.320465         1.516552        -2.058673
