19
Iteration:   561charge 0 multiplicity 1
 C        -0.108999         0.134892        -0.223590
 C         1.394612         0.050175         0.170775
 C         2.028262         0.943150         1.256079
 C         3.390596         0.376717         0.516642
 C         3.055341        -1.227069         0.427798
 C         3.072131        -1.070191        -1.139980
 C         2.618209         0.280750        -0.827301
 O         2.443995         1.188236        -1.944739
 O         1.621327        -1.285599         0.662702
 H        -0.718076         0.095374         0.657770
 H        -0.325600         1.095572        -0.608455
 H        -0.490953        -0.578699        -0.955419
 H         1.744762         2.014677         0.995971
 H         1.870257         0.917634         2.337338
 H         4.403607         0.851575         0.597891
 H         3.542749        -1.947992         1.044564
 H         4.181643        -0.824049        -1.474106
 H         2.401925        -1.693060        -1.885167
 H         1.477935         1.294324        -2.170550
