19
Iteration:  3501charge 0 multiplicity 1
 C        -0.179993         0.024609        -0.262607
 C         1.303842         0.044939         0.147315
 C         2.081339         0.941896         1.246514
 C         3.343965         0.439028         0.487569
 C         3.130318        -1.089913         0.463769
 C         3.211122        -1.121315        -1.171193
 C         2.477817         0.224159        -0.921450
 O         2.356018         1.263286        -1.836101
 O         1.713319        -1.244514         0.690178
 H        -0.777185        -0.197332         0.716727
 H        -0.570577         0.842993        -0.813198
 H        -0.237738        -0.861744        -0.907152
 H         2.007330         2.014133         1.231368
 H         2.068596         0.515575         2.225580
 H         4.348639         0.941261         0.586976
 H         3.616946        -1.758200         1.186697
 H         4.192792        -0.850432        -1.571316
 H         2.794381        -2.020061        -1.678835
 H         1.555416         1.053839        -2.327489
