19
Iteration:  2324
 C        -0.028518         0.013810        -0.467616
 C         1.348549         0.058370         0.207397
 C         2.015368         0.925229         1.245370
 C         3.245395         0.427814         0.526354
 C         3.098126        -1.151571         0.459899
 C         3.180713        -1.136977        -1.053754
 C         2.571401         0.319811        -0.839041
 O         2.260860         1.340728        -1.819181
 O         1.756774        -1.325238         0.661584
 H        -0.949381        -0.062147         0.334882
 H        -0.241672         0.882100        -1.009801
 H         0.073941        -0.764255        -1.179665
 H         1.745783         1.954282         1.194885
 H         1.952990         0.676799         2.324975
 H         4.199709         0.875895         0.639047
 H         3.765329        -1.902804         0.984384
 H         4.284352        -0.966153        -1.386949
 H         2.695051        -1.919614        -1.762359
 H         1.546954         1.040459        -2.361600
