19
Iteration:  4363charge 0 multiplicity 1
 C        -0.210953         0.018210        -0.021646
 C         1.263366        -0.050970         0.269858
 C         1.936200         0.962009         1.145197
 C         3.230502         0.515648         0.427095
 C         3.212979        -1.075553         0.413727
 C         3.150512        -1.121965        -1.132569
 C         2.503688         0.338476        -0.908565
 O         2.559349         1.242371        -1.904814
 O         1.716361        -1.336204         0.603888
 H        -0.699479         0.056018         1.084166
 H        -0.380616         1.060925        -0.495592
 H        -0.522648        -0.852639        -0.525129
 H         1.700315         2.011287         1.095762
 H         1.845039         0.647088         2.164241
 H         4.275596         0.861149         0.585953
 H         3.839754        -1.760409         0.936934
 H         4.104794        -1.001472        -1.694138
 H         2.720561        -1.856186        -1.769096
 H         2.201127         0.842549        -2.694447
