19
Iteration:  4193
 C        -0.193995         0.012855         0.018303
 C         1.303924        -0.076201         0.161755
 C         1.924173         0.932797         1.110576
 C         3.176533         0.452276         0.429438
 C         3.166010        -1.107572         0.355885
 C         3.195726        -1.039078        -1.118040
 C         2.577410         0.299532        -0.933416
 O         2.423082         1.245226        -1.942587
 O         1.735573        -1.332065         0.735267
 H        -0.677931         0.089740         0.923001
 H        -0.201055         0.981008        -0.385860
 H        -0.648199        -0.801160        -0.594941
 H         1.668381         1.886443         0.655171
 H         1.821278         0.846617         2.239857
 H         4.157782         0.815427         0.661328
 H         3.808667        -1.759434         0.910923
 H         4.287882        -0.850568        -1.367057
 H         2.750412        -1.794556        -1.775966
 H         3.218774         1.809391        -2.054630
