19
Iteration:   896charge 0 multiplicity 1
 C        -0.100479         0.016110        -0.323719
 C         1.295842        -0.014485         0.109249
 C         2.010099         0.918991         1.211121
 C         3.230484         0.475836         0.490938
 C         3.089735        -1.150858         0.494299
 C         3.249191        -1.081604        -1.093220
 C         2.443786         0.277745        -0.853388
 O         2.511883         1.324174        -1.809930
 O         1.648525        -1.320117         0.681173
 H        -0.806865         0.308119         0.466458
 H        -0.199087         0.807549        -0.989119
 H        -0.297252        -0.897678        -0.862467
 H         1.873647         1.968618         1.207872
 H         1.988601         0.526078         2.213034
 H         4.282553         0.871102         0.454597
 H         3.575703        -1.968766         1.090740
 H         4.205089        -0.654662        -1.495428
 H         2.896434        -1.955126        -1.802744
 H         1.818627         1.166561        -2.446636
