19
Iteration:  2412charge 0 multiplicity 1
 C        -0.202968        -0.113463        -0.117084
 C         1.259519         0.060879         0.099114
 C         1.907981         0.973291         1.229154
 C         3.198095         0.477291         0.620152
 C         3.152596        -1.113372         0.384822
 C         3.260796        -1.040448        -1.111311
 C         2.563630         0.292265        -0.932073
 O         2.611826         1.260207        -1.903277
 O         1.654616        -1.272207         0.567622
 H        -0.574185        -0.356065         1.141750
 H        -0.827346         0.710206        -0.303249
 H        -0.499542        -1.029884        -0.733824
 H         1.665580         2.024699         1.124634
 H         1.657066         0.701938         2.251466
 H         4.186212         0.791906         0.861229
 H         3.826719        -1.839828         0.843249
 H         4.344093        -0.852166        -1.431190
 H         2.860888        -1.978705        -1.700171
 H         1.956318         1.126053        -2.571795
