19
Iteration:  4790
 C        -0.048414         0.034650        -0.311581
 C         1.362849         0.067044         0.172317
 C         2.071294         0.967215         1.250050
 C         3.337399         0.453802         0.451683
 C         3.137483        -1.188243         0.470679
 C         3.177525        -1.103804        -1.131801
 C         2.454086         0.233061        -0.907334
 O         2.231174         1.271884        -1.930830
 O         1.749880        -1.289358         0.809277
 H        -0.848649        -0.164935         0.507296
 H        -0.185853         1.084259        -0.763740
 H        -0.146358        -0.687750        -1.124228
 H         1.880073         2.036513         1.145761
 H         1.973439         0.680738         2.306108
 H         4.366617         0.747697         0.540248
 H         3.760743        -1.652718         1.273769
 H         4.129483        -1.031139        -1.695018
 H         2.647982        -1.949573        -1.637134
 H         1.347101         1.188460        -2.339358
