19
Iteration:   121charge 0 multiplicity 1
 C        -0.100971         0.150333        -0.202529
 C         1.250589         0.011795         0.197654
 C         1.940455         0.961470         1.199569
 C         3.281650         0.419600         0.509001
 C         3.165654        -1.134388         0.385408
 C         3.092506        -1.129648        -1.150252
 C         2.408711         0.199179        -0.878171
 O         2.643869         1.203119        -1.877317
 O         1.708760        -1.293229         0.712622
 H        -0.959912         0.210899         0.569111
 H        -0.154743         1.184388        -0.716026
 H        -0.405774        -0.568839        -0.982012
 H         1.661496         1.997157         0.960447
 H         1.632844         0.713885         2.244455
 H         4.259478         0.802584         0.605265
 H         3.792507        -1.857148         0.989074
 H         4.008193        -0.884261        -1.497687
 H         2.704817        -1.926072        -1.663336
 H         1.892990         1.557793        -2.405195
