19
Iteration:  1015
 C        -0.017378         0.021270        -0.321767
 C         1.345816        -0.019203         0.127365
 C         1.887524         1.017292         1.277773
 C         3.288442         0.400888         0.648185
 C         3.069183        -1.176709         0.428553
 C         3.197650        -0.983294        -1.116460
 C         2.630947         0.313994        -0.894428
 O         2.386918         1.122712        -1.930667
 O         1.673060        -1.277667         0.644441
 H        -0.775529        -0.277103         0.426777
 H        -0.292957         1.057405        -0.480583
 H        -0.062661        -0.568602        -1.236543
 H         1.617099         2.086883         1.054747
 H         1.616148         0.669417         2.385029
 H         4.257653         0.715871         0.933063
 H         3.615363        -2.032888         0.919055
 H         4.254230        -0.833372        -1.373357
 H         2.682914        -1.630815        -1.907886
 H         1.832417         1.930137        -1.742170
