19
Iteration:  4776charge 0 multiplicity 1
 C        -0.107633         0.026528        -0.311402
 C         1.324655        -0.020060         0.195723
 C         2.149899         0.984443         1.161551
 C         3.330429         0.413173         0.438360
 C         3.158904        -1.106607         0.505637
 C         3.173451        -1.159059        -1.151435
 C         2.500222         0.230265        -0.902483
 O         2.242056         1.284149        -1.821984
 O         1.706781        -1.200612         0.767109
 H        -0.698609        -0.257649         0.587934
 H        -0.635078         0.931970        -0.762059
 H        -0.215515        -0.734227        -1.059328
 H         1.971288         2.105075         1.013275
 H         2.053485         0.575291         2.251525
 H         4.293089         1.031729         0.411340
 H         3.663695        -2.018166         0.808778
 H         4.231556        -0.782151        -1.230685
 H         2.715420        -1.901085        -1.748678
 H         1.607334         0.829914        -2.424937
