19
Iteration:   918
 C        -0.261867        -0.040987        -0.297496
 C         1.258775         0.092721         0.146318
 C         1.982952         0.923691         1.239228
 C         3.295677         0.411219         0.571761
 C         3.127514        -1.104619         0.437340
 C         3.255723        -1.099556        -1.106443
 C         2.617573         0.272649        -0.853993
 O         2.519628         1.259114        -1.822208
 O         1.651732        -1.230165         0.562610
 H        -0.892010        -0.137974         0.615166
 H        -0.746531         0.703158        -0.811308
 H        -0.172089        -0.950739        -0.889153
 H         2.032839         1.976361         0.979747
 H         1.680956         0.768801         2.270183
 H         4.335068         0.878443         0.715640
 H         3.684585        -1.909000         0.992537
 H         4.360648        -1.102946        -1.350847
 H         2.636108        -1.907821        -1.723389
 H         1.556591         1.298952        -2.094093
