19
Iteration:   321charge 0 multiplicity 1
 C        -0.137806         0.220871        -0.233188
 C         1.304724        -0.042083         0.196893
 C         2.042693         0.954811         1.119969
 C         3.262046         0.379157         0.501328
 C         3.164780        -1.193095         0.480534
 C         3.110218        -1.223702        -1.127706
 C         2.520204         0.247815        -0.907030
 O         2.490739         1.394725        -1.814613
 O         1.682649        -1.348509         0.679662
 H        -0.941702         0.207227         0.618662
 H        -0.076428         1.237227        -0.665858
 H        -0.562549        -0.528665        -1.034283
 H         1.867704         2.019989         0.765567
 H         1.854085         0.965824         2.205688
 H         4.232353         0.974903         0.646966
 H         3.696394        -1.982686         1.001826
 H         4.027905        -1.332430        -1.552955
 H         2.418443        -1.960279        -1.377180
 H         2.040832         1.068805        -2.620406
