19
Iteration:  3234
 C        -0.214564        -0.001453         0.101091
 C         1.286682         0.010888         0.166365
 C         1.988624         1.020288         1.039792
 C         3.317267         0.384038         0.546713
 C         3.061872        -1.190860         0.420608
 C         3.212441        -1.054221        -1.159760
 C         2.632468         0.353280        -0.906877
 O         2.526541         1.231814        -1.927625
 O         1.635650        -1.341028         0.594104
 H        -0.607447        -0.332754         1.075696
 H        -0.580082         1.022483        -0.152360
 H        -0.603717        -0.632114        -0.781234
 H         1.887377         1.923204         0.507479
 H         1.637424         1.192497         1.991431
 H         4.288723         0.826654         0.687383
 H         3.807969        -1.874338         0.945499
 H         4.283713        -1.134230        -1.449314
 H         2.688809        -1.701638        -1.830675
 H         1.718331         1.724091        -1.964627
