19
Iteration:  1277charge 0 multiplicity 1
 C        -0.156163         0.009286        -0.242012
 C         1.302797         0.099095         0.066923
 C         1.871172         1.002485         1.182683
 C         3.243780         0.429906         0.475138
 C         3.060520        -1.170166         0.493782
 C         3.403987        -1.130623        -1.095957
 C         2.630203         0.221751        -0.945992
 O         2.324325         1.285782        -1.721952
 O         1.703533        -1.287097         0.564965
 H        -0.810324         0.061702         0.698832
 H        -0.694209         0.822948        -0.818458
 H        -0.440702        -1.066813        -0.595070
 H         1.647625         2.045454         1.075356
 H         1.726723         0.662066         2.198048
 H         4.198552         0.674729         0.882561
 H         3.554432        -1.747699         1.255584
 H         4.479438        -0.856230        -1.231062
 H         3.028465        -1.986005        -1.669505
 H         3.111318         1.408620        -2.311730
