19
Iteration:  3540charge 0 multiplicity 1
 C        -0.206755         0.022903         0.016457
 C         1.281849        -0.055549         0.201702
 C         1.951583         1.024157         1.057580
 C         3.230738         0.556614         0.496869
 C         3.141224        -1.106356         0.429545
 C         3.184448        -1.064304        -1.269178
 C         2.540703         0.221272        -0.879061
 O         2.556142         1.240385        -1.791750
 O         1.726919        -1.382915         0.648415
 H        -0.725713        -0.085852         0.928918
 H        -0.535809         1.044605        -0.429817
 H        -0.647397        -0.829513        -0.601002
 H         1.510593         1.951280         0.660333
 H         1.727862         1.083217         2.158956
 H         4.219140         1.036370         0.464984
 H         3.848470        -1.799379         0.906844
 H         4.166422        -0.885618        -1.705573
 H         2.599762        -1.810364        -1.817510
 H         2.357631         0.923069        -2.720473
