19
Iteration:  4526
 C        -0.209703         0.073589         0.001441
 C         1.241165        -0.033833         0.093102
 C         1.974940         0.906110         1.074085
 C         3.218178         0.434115         0.401001
 C         3.150274        -1.153898         0.439139
 C         3.266946        -1.118479        -1.122792
 C         2.558820         0.259564        -0.916216
 O         2.475097         1.306649        -1.787667
 O         1.739384        -1.271398         0.650294
 H        -0.562432        -0.092083         1.074218
 H        -0.618452         1.074226        -0.329051
 H        -0.724881        -0.762935        -0.466099
 H         1.774506         1.927463         0.778744
 H         1.919383         0.743805         2.151313
 H         4.042608         1.167732         0.361045
 H         3.627994        -1.784234         1.106271
 H         4.286974        -0.821385        -1.561344
 H         2.984197        -2.040789        -1.745250
 H         1.964175         1.153390        -2.616014
