19
Iteration:  1384
 C        -0.124802        -0.037387        -0.305063
 C         1.336810         0.048459         0.056660
 C         1.953545         1.037724         1.112437
 C         3.297810         0.388693         0.639727
 C         3.085246        -1.207132         0.435632
 C         3.286386        -1.114643        -1.078325
 C         2.596129         0.236007        -0.855482
 O         2.264349         1.286325        -1.740638
 O         1.677338        -1.241090         0.628974
 H        -0.604691        -0.383458         0.513066
 H        -0.652661         0.946557        -0.693406
 H        -0.170090        -0.752264        -1.161869
 H         1.765725         2.057681         0.792135
 H         1.810870         0.903418         2.210050
 H         4.214398         0.898090         0.661399
 H         3.453779        -2.058970         1.017808
 H         4.399077        -0.748144        -1.307462
 H         2.996367        -1.856954        -1.846679
 H         3.064749         1.584834        -2.266217
