19
Iteration:  4736charge 0 multiplicity 1
 C        -0.140412        -0.017793        -0.057208
 C         1.290159        -0.074494         0.150093
 C         1.946361         0.995487         1.021219
 C         3.291391         0.463421         0.435892
 C         3.154595        -1.093333         0.362431
 C         3.128123        -1.114587        -1.114156
 C         2.485937         0.280610        -0.869069
 O         2.480151         1.325145        -1.820407
 O         1.741350        -1.329700         0.727989
 H        -0.718451        -0.150189         0.947302
 H        -0.252182         1.099643        -0.290830
 H        -0.524507        -0.785090        -0.705549
 H         2.069223         1.957515         0.567506
 H         1.735331         1.185458         2.051974
 H         4.157898         1.101505         0.607842
 H         3.761869        -1.819124         1.012060
 H         4.212755        -1.238843        -1.421543
 H         2.540346        -1.921158        -1.628227
 H         2.130182         0.907690        -2.617008
