19
Iteration:   248
 C        -0.122814         0.067368        -0.173841
 C         1.331884         0.104077         0.138886
 C         2.044075         0.964076         1.243359
 C         3.332630         0.459202         0.574768
 C         3.029599        -1.270828         0.414191
 C         3.129922        -1.105060        -1.092686
 C         2.620158         0.302371        -0.851713
 O         2.508178         1.153148        -1.925229
 O         1.603604        -1.221456         0.586952
 H        -0.674939        -0.167273         0.659622
 H        -0.451008         1.010150        -0.565313
 H        -0.373937        -0.740190        -0.862057
 H         2.143747         2.074353         1.003243
 H         1.837609         0.661754         2.274188
 H         4.392511         0.996538         0.551033
 H         3.385620        -2.094770         0.972513
 H         4.203806        -1.121576        -1.653794
 H         2.278821        -1.651887        -1.696072
 H         1.617820         1.406400        -2.115183
