19
Iteration:    83charge 0 multiplicity 1
 C        -0.148152         0.069407        -0.157032
 C         1.355604         0.008637         0.140125
 C         2.045084         1.007981         1.068590
 C         3.344697         0.378131         0.549147
 C         3.006663        -1.154907         0.474669
 C         3.254556        -1.195138        -1.104397
 C         2.601747         0.279692        -0.950176
 O         2.433172         1.254176        -1.856049
 O         1.551040        -1.245172         0.629817
 H        -0.710535        -0.194908         0.702655
 H        -0.265826         1.077216        -0.515335
 H        -0.433742        -0.601866        -0.994183
 H         1.949763         2.099776         0.769798
 H         1.723468         0.804176         2.095426
 H         4.457151         0.656081         0.764360
 H         3.502383        -1.827600         1.158755
 H         4.441953        -1.142655        -1.326194
 H         2.774105        -2.129802        -1.664803
 H         1.817333         1.924026        -1.435868
