19
Iteration:  2726
 C        -0.213028        -0.008883        -0.055262
 C         1.241559        -0.053364         0.152779
 C         1.932315         0.868491         1.153921
 C         3.208543         0.483980         0.477739
 C         3.119365        -1.082523         0.442020
 C         3.250140        -1.020244        -1.211600
 C         2.499428         0.313497        -0.900173
 O         2.603215         1.306288        -1.861786
 O         1.700786        -1.347642         0.689386
 H        -0.751249        -0.114376         0.828717
 H        -0.444238         1.070067        -0.495754
 H        -0.445768        -0.830196        -0.729092
 H         1.736329         1.965426         1.027254
 H         1.778840         0.517046         2.195695
 H         4.182682         0.960199         0.620171
 H         3.812055        -1.708595         0.943206
 H         4.217074        -0.784020        -1.657476
 H         2.741939        -1.747081        -1.761630
 H         2.379354         0.858521        -2.729723
