19
Iteration:  2183charge 0 multiplicity 1
 C        -0.102694         0.061349        -0.407436
 C         1.298315        -0.018715         0.163698
 C         2.015080         0.864304         1.257670
 C         3.261312         0.478529         0.533232
 C         3.196348        -1.118847         0.418903
 C         3.153280        -1.068831        -1.055423
 C         2.525566         0.290928        -0.887519
 O         2.326906         1.278577        -1.807525
 O         1.727381        -1.318159         0.666025
 H        -0.823627         0.167139         0.432652
 H        -0.279615         0.894896        -0.971436
 H        -0.387544        -0.778233        -1.042026
 H         1.709059         1.887888         1.060717
 H         1.754680         0.691421         2.362937
 H         4.128629         1.013214         0.851832
 H         3.723679        -1.899420         1.070649
 H         4.130226        -0.943933        -1.540340
 H         2.589019        -1.869857        -1.529783
 H         2.945601         1.141565        -2.511764
