19
Iteration:  4151charge 0 multiplicity 1
 C        -0.059730        -0.041793        -0.291453
 C         1.311240         0.030922         0.198037
 C         2.052521         1.056797         1.185296
 C         3.385027         0.406317         0.466211
 C         3.151460        -1.113069         0.391894
 C         3.150756        -1.089633        -1.125333
 C         2.473361         0.238309        -0.872508
 O         2.213354         1.233582        -1.700335
 O         1.708741        -1.236124         0.647886
 H        -0.768824        -0.216165         0.556400
 H        -0.397371         0.827966        -0.802445
 H        -0.186214        -1.027387        -0.966136
 H         2.147715         2.093161         1.052631
 H         1.817448         0.962149         2.254920
 H         4.322751         0.894189         0.261260
 H         3.675554        -1.898676         0.950010
 H         4.057849        -1.024531        -1.706252
 H         2.764198        -2.055880        -1.494189
 H         2.756077         1.172226        -2.490503
