19
Iteration:  2211
 C        -0.129680        -0.088104        -0.173210
 C         1.288801         0.068357         0.170727
 C         1.958334         0.966981         1.238130
 C         3.232828         0.380435         0.584173
 C         3.033915        -1.149823         0.407568
 C         3.264573        -0.965324        -1.133257
 C         2.616034         0.325209        -0.901023
 O         2.453996         1.258457        -1.871515
 O         1.685826        -1.299578         0.609378
 H        -0.784282        -0.137847         0.782311
 H        -0.701152         0.776765        -0.772955
 H        -0.260532        -0.929610        -0.849219
 H         1.705620         1.981983         0.832531
 H         1.633523         0.832216         2.236884
 H         4.257513         0.749637         0.914810
 H         3.528141        -1.875682         0.965993
 H         4.367278        -0.863675        -1.388814
 H         2.804402        -1.671623        -1.881653
 H         2.563808         0.882883        -2.767054
