19
Iteration:  4320
 C        -0.133292        -0.000995        -0.172513
 C         1.372974         0.008400         0.145351
 C         2.062542         0.970956         1.096869
 C         3.333053         0.429576         0.398212
 C         3.087718        -1.188018         0.420624
 C         3.194700        -1.139491        -1.142105
 C         2.550331         0.193808        -0.892408
 O         2.242749         1.362933        -1.749574
 O         1.706205        -1.231114         0.744512
 H        -0.712531        -0.268372         0.796295
 H        -0.262951         1.000321        -0.794585
 H        -0.206337        -0.684671        -1.006455
 H         1.829254         2.010910         0.878436
 H         1.914335         0.775332         2.166039
 H         4.335127         0.821268         0.639742
 H         3.739369        -1.656556         1.093822
 H         4.260849        -0.946775        -1.421946
 H         2.887064        -1.967550        -1.711389
 H         1.938242         1.055837        -2.607329
