19
Iteration:  2371charge 0 multiplicity 1
 C        -0.187209         0.012198        -0.165986
 C         1.263053        -0.059512         0.112735
 C         1.927061         1.003530         1.083451
 C         3.212875         0.461626         0.491666
 C         3.104926        -1.109252         0.374197
 C         3.344803        -1.095744        -1.073246
 C         2.471004         0.219784        -0.890092
 O         2.502746         1.383858        -1.745689
 O         1.737203        -1.416197         0.665797
 H        -0.717274         0.002328         0.673697
 H        -0.363022         0.920566        -0.677928
 H        -0.464447        -0.819013        -0.912699
 H         1.829433         2.088316         0.736479
 H         1.676929         0.995280         2.161311
 H         4.171111         0.950604         0.775246
 H         3.654227        -1.752179         1.006012
 H         4.341181        -0.921024        -1.298206
 H         2.912167        -1.947138        -1.580622
 H         2.013393         1.340302        -2.600582
