19
Iteration:   469charge 0 multiplicity 1
 C        -0.139880         0.077329        -0.193031
 C         1.305580         0.141579         0.153352
 C         2.038076         0.949371         1.239763
 C         3.337434         0.386720         0.549566
 C         3.078969        -1.263565         0.381463
 C         3.077161        -1.091004        -1.117926
 C         2.567256         0.312464        -0.856423
 O         2.483473         1.209307        -1.893938
 O         1.644446        -1.231335         0.642033
 H        -0.749095         0.027358         0.692386
 H        -0.447728         1.029515        -0.666429
 H        -0.375008        -0.725563        -0.831845
 H         1.984895         2.018870         1.209530
 H         1.871167         0.756324         2.330553
 H         4.295552         0.836140         0.761577
 H         3.735410        -2.080090         0.821024
 H         4.091573        -0.979202        -1.669773
 H         2.458068        -1.908825        -1.572404
 H         2.440907         0.763398        -2.731119
