19
Iteration:  4566
 C        -0.260493         0.003030         0.027098
 C         1.278168        -0.028134         0.154750
 C         1.964016         0.940505         1.138114
 C         3.271114         0.504439         0.513256
 C         3.127352        -1.130464         0.424352
 C         3.207476        -1.111939        -1.210693
 C         2.572996         0.258054        -0.911934
 O         2.514235         1.310095        -1.894838
 O         1.742382        -1.303764         0.647951
 H        -0.904636        -0.115679         0.874972
 H        -0.485174         0.914578        -0.463036
 H        -0.393207        -0.798819        -0.805931
 H         1.854038         2.027753         0.803113
 H         1.816121         0.979948         2.230144
 H         4.262002         0.935007         0.570803
 H         3.685688        -1.910033         0.947821
 H         4.143794        -0.793773        -1.519249
 H         2.693901        -1.951479        -1.659833
 H         1.829226         0.922627        -2.454951
