19
Iteration:    28
 C        -0.058352         0.210875        -0.288086
 C         1.318897         0.006890         0.205017
 C         1.923051         0.897081         1.281942
 C         3.257405         0.448465         0.458621
 C         3.135235        -1.164736         0.443315
 C         3.038909        -1.138419        -1.083666
 C         2.546772         0.275600        -0.898796
 O         2.520288         1.190038        -1.997044
 O         1.709844        -1.308633         0.727084
 H        -0.764550        -0.125494         0.468924
 H        -0.227172         1.233304        -0.642301
 H        -0.249815        -0.486539        -1.149794
 H         1.606476         1.968378         1.120004
 H         1.816877         0.452856         2.292015
 H         4.264229         0.928006         0.694920
 H         3.791018        -1.799749         1.085109
 H         4.115784        -1.272227        -1.595688
 H         2.313218        -1.941491        -1.551648
 H         2.240756         2.041316        -1.633703
