19
Iteration:  2016
 C        -0.136387         0.014707        -0.313420
 C         1.330468        -0.068780         0.142372
 C         1.991762         0.992613         1.119531
 C         3.296550         0.390742         0.534857
 C         3.126046        -1.171952         0.471814
 C         3.289849        -1.098592        -1.074422
 C         2.619398         0.290948        -0.857229
 O         2.262239         1.283375        -1.849869
 O         1.686624        -1.275266         0.637874
 H        -1.072078        -0.134368         0.458552
 H        -0.502260         0.881097        -0.921339
 H        -0.195271        -0.697311        -0.999979
 H         1.627198         2.078976         0.896888
 H         1.812459         0.886631         2.219623
 H         4.314276         0.798825         0.823948
 H         3.592344        -1.874216         1.109562
 H         4.363148        -0.898128        -1.287422
 H         2.925836        -1.933698        -1.710666
 H         2.266456         2.096550        -1.291229
