19
Iteration:  4204
 C        -0.206542         0.056620         0.029461
 C         1.253332        -0.054070         0.213452
 C         1.950095         0.974758         1.112272
 C         3.237623         0.510901         0.491576
 C         3.120497        -1.148408         0.411589
 C         3.260648        -1.050583        -1.168517
 C         2.477492         0.239083        -0.926237
 O         2.435658         1.189456        -1.955553
 O         1.781707        -1.313796         0.606861
 H        -0.576477        -0.054250         0.982623
 H        -0.653499         0.872417        -0.446743
 H        -0.675985        -0.759654        -0.595648
 H         1.704785         2.013171         0.937840
 H         1.757582         0.800399         2.236718
 H         4.202053         0.962548         0.601004
 H         3.813449        -1.700763         1.032642
 H         4.341514        -0.847276        -1.469176
 H         2.852764        -1.843179        -1.824657
 H         3.162761         1.734978        -1.656213
