19
Iteration:  4346charge 0 multiplicity 1
 C        -0.250479         0.049781        -0.055224
 C         1.287293        -0.007516         0.186928
 C         2.013932         0.973809         1.145421
 C         3.272728         0.461028         0.528400
 C         3.129855        -1.147821         0.370991
 C         3.169713        -1.006166        -1.181792
 C         2.471779         0.209192        -0.849357
 O         2.472295         1.253037        -1.859757
 O         1.811904        -1.335322         0.664155
 H        -0.750850        -0.030830         0.856098
 H        -0.380318         0.903143        -0.704411
 H        -0.530632        -0.720241        -0.870714
 H         1.826163         1.904665         0.556585
 H         1.748862         1.162239         2.255097
 H         4.172400         1.072573         0.439339
 H         3.828467        -1.885794         0.926316
 H         4.158418        -0.893538        -1.681906
 H         2.548177        -1.889177        -1.501750
 H         2.227421         0.840052        -2.689087
