19
Iteration:    48
 C        -0.252567         0.119198        -0.312249
 C         1.241161         0.011573         0.168413
 C         2.083304         1.001088         1.191964
 C         3.400822         0.363193         0.561713
 C         3.077877        -1.130830         0.408538
 C         3.178103        -1.065415        -1.165560
 C         2.552087         0.250014        -0.798717
 O         2.468279         1.103941        -1.904844
 O         1.654187        -1.272285         0.708936
 H        -1.052975        -0.071139         0.376101
 H        -0.309008         1.130111        -0.575155
 H        -0.412815        -0.421040        -1.191688
 H         2.074047         2.058106         1.015354
 H         1.837034         0.789744         2.256713
 H         4.353898         0.796518         0.701484
 H         3.587343        -1.913953         1.051219
 H         4.232426        -0.866993        -1.637100
 H         2.579407        -1.926314        -1.664197
 H         2.309993         2.057330        -1.654755
