19
Iteration:  3783
 C        -0.048353         0.153002        -0.313420
 C         1.309708         0.035969         0.176170
 C         2.080209         0.910301         1.227940
 C         3.332894         0.378226         0.481774
 C         3.122910        -1.117985         0.400419
 C         3.255920        -1.121414        -1.117651
 C         2.493198         0.255710        -0.918780
 O         2.063581         1.202506        -1.875690
 O         1.783611        -1.281878         0.792963
 H        -0.767880        -0.017128         0.631660
 H        -0.352544         1.050864        -0.872457
 H        -0.246707        -0.523885        -1.061630
 H         1.954249         1.960101         1.019821
 H         1.900946         0.721250         2.340563
 H         4.367469         0.811632         0.529892
 H         3.891391        -1.706748         0.934510
 H         4.269448        -1.067890        -1.352429
 H         2.549847        -1.832111        -1.512149
 H         2.836585         1.479495        -2.374478
