19
Iteration:  4938charge 0 multiplicity 1
 C        -0.095933        -0.008562        -0.243734
 C         1.347661         0.012121         0.166490
 C         2.064400         1.056701         1.127412
 C         3.362160         0.367799         0.487727
 C         3.166892        -1.145230         0.432263
 C         3.192561        -1.170478        -1.105459
 C         2.476645         0.272212        -0.865619
 O         2.216363         1.204978        -1.881635
 O         1.704597        -1.241976         0.735852
 H        -0.807959        -0.199432         0.546772
 H        -0.352561         0.921252        -0.804506
 H        -0.204679        -0.680976        -1.115228
 H         1.872598         2.090220         0.930555
 H         2.023023         0.790211         2.159219
 H         4.305903         1.012819         0.406528
 H         3.787271        -1.739105         1.092135
 H         4.200472        -0.763449        -1.416535
 H         2.829768        -2.010400        -1.682608
 H         1.960526         2.083618        -1.578405
