19
Iteration:  1352charge 0 multiplicity 1
 C        -0.062253         0.060918        -0.415041
 C         1.300822        -0.006811         0.091845
 C         2.026469         0.954679         1.171877
 C         3.247369         0.457761         0.527750
 C         3.122935        -1.102165         0.521212
 C         3.180795        -1.116278        -1.008590
 C         2.575415         0.245493        -0.866193
 O         2.241813         1.305957        -1.755596
 O         1.733031        -1.368076         0.639986
 H        -0.706393        -0.408292         0.187135
 H        -0.505615         1.078519        -0.627496
 H        -0.214527        -0.477716        -1.380386
 H         1.713366         1.967184         0.989157
 H         1.934259         0.659842         2.219999
 H         4.232997         0.827522         0.472310
 H         3.665482        -1.806591         1.133338
 H         4.320605        -0.915870        -1.381352
 H         2.731410        -1.921151        -1.643421
 H         3.051164         1.600820        -2.193647
