19
Iteration:  4513charge 0 multiplicity 1
 C        -0.228692         0.042929        -0.033011
 C         1.330461        -0.003013         0.124121
 C         1.933118         0.988652         1.099236
 C         3.311105         0.456763         0.488994
 C         3.187903        -1.163558         0.365029
 C         3.263342        -1.091242        -1.140489
 C         2.516642         0.227729        -0.894126
 O         2.428734         1.314374        -1.839107
 O         1.707389        -1.305015         0.684668
 H        -0.581790        -0.057911         1.011609
 H        -0.511448         0.998561        -0.453063
 H        -0.623301        -0.765507        -0.815130
 H         1.825637         2.072235         0.776978
 H         1.549951         0.777410         2.104351
 H         4.370587         0.716552         0.698584
 H         3.825759        -1.850400         0.875649
 H         4.329954        -1.131418        -1.452271
 H         2.552751        -1.775243        -1.702247
 H         1.850142         0.906471        -2.496325
