19
Iteration:  4360charge 0 multiplicity 1
 C        -0.207013         0.033939        -0.015337
 C         1.261839        -0.054101         0.256845
 C         1.936427         0.968717         1.138357
 C         3.245726         0.517204         0.437135
 C         3.216081        -1.090217         0.381753
 C         3.128270        -1.122336        -1.132249
 C         2.494862         0.336685        -0.894964
 O         2.552807         1.231950        -1.888044
 O         1.744623        -1.338413         0.598168
 H        -0.850336         0.089794         0.924975
 H        -0.384854         0.968814        -0.425160
 H        -0.520558        -0.857908        -0.537712
 H         1.672310         2.051080         0.980943
 H         1.865260         0.751082         2.190771
 H         4.274955         0.893907         0.716546
 H         3.846147        -1.769594         1.104339
 H         4.085384        -0.897525        -1.629726
 H         2.650347        -1.874125        -1.846090
 H         2.221404         0.805176        -2.708753
