19
Iteration:  4261charge 0 multiplicity 1
 C        -0.061289         0.058978        -0.238589
 C         1.342890        -0.038711         0.199603
 C         1.957450         1.005854         1.186517
 C         3.266452         0.457365         0.466467
 C         3.196793        -1.241995         0.349204
 C         3.125098        -1.039924        -1.164163
 C         2.519423         0.297579        -0.836573
 O         2.358425         1.197175        -1.939655
 O         1.735764        -1.293496         0.819408
 H        -0.713190        -0.220618         0.621515
 H        -0.271243         1.069945        -0.399054
 H        -0.278795        -0.725009        -1.033400
 H         1.814800         2.044975         0.872651
 H         1.746651         0.782935         2.223502
 H         4.274983         0.890642         0.565458
 H         4.096823        -1.788083         0.806544
 H         4.127303        -0.861147        -1.544087
 H         2.541494        -1.827324        -1.742672
 H         1.522585         1.714745        -1.801577
