19
Iteration:  4386
 C        -0.269114        -0.005917         0.017686
 C         1.287374         0.007300         0.084519
 C         2.039099         0.870711         1.184742
 C         3.248479         0.488343         0.415848
 C         3.101010        -1.137163         0.441361
 C         3.230314        -1.152538        -1.076200
 C         2.497630         0.315111        -0.993384
 O         2.522248         1.300624        -1.940254
 O         1.739468        -1.256064         0.678966
 H        -0.830062        -0.110888         1.056931
 H        -0.673452         1.016046        -0.423603
 H        -0.510153        -0.884444        -0.584008
 H         1.838089         1.916559         1.168498
 H         1.971647         0.524191         2.218886
 H         4.210269         0.908209         0.702382
 H         3.573995        -1.607841         1.223228
 H         4.283979        -0.888100        -1.343459
 H         2.989134        -1.844274        -1.868901
 H         1.875228         1.165399        -2.678117
