19
Iteration:  4678charge 0 multiplicity 1
 C        -0.169455         0.009143        -0.076326
 C         1.310288         0.010484         0.188969
 C         1.980972         0.988771         1.130026
 C         3.361975         0.479997         0.468419
 C         3.123572        -1.152590         0.529824
 C         3.190825        -1.030019        -1.149956
 C         2.486765         0.252371        -0.886123
 O         2.434401         1.242975        -1.925248
 O         1.713329        -1.324816         0.602812
 H        -0.682802        -0.084498         0.925534
 H        -0.597327         0.867776        -0.693938
 H        -0.435108        -0.841791        -0.757417
 H         1.859639         2.079068         0.935306
 H         2.062404         0.757413         2.235611
 H         4.425448         0.834586         0.625359
 H         3.555189        -1.866592         1.221883
 H         4.264606        -0.828609        -1.403348
 H         2.664541        -1.758476        -1.753854
 H         1.632210         0.989132        -2.444882
