19
Iteration:  1867
 C        -0.159457         0.004351        -0.336667
 C         1.239709         0.006566         0.134495
 C         1.946505         0.901179         1.340578
 C         3.294858         0.514977         0.576424
 C         3.103569        -1.121602         0.436763
 C         3.195895        -1.065272        -1.155258
 C         2.526833         0.314336        -0.849366
 O         2.421074         1.222374        -1.909670
 O         1.758773        -1.288492         0.653175
 H        -0.844282        -0.313310         0.316741
 H        -0.444958         0.890449        -0.690208
 H        -0.295938        -0.810893        -1.165674
 H         1.715628         1.949336         1.297411
 H         1.649923         0.497412         2.330176
 H         4.359757         0.812494         0.682702
 H         3.578676        -1.630639         1.245449
 H         4.182701        -0.919225        -1.799077
 H         2.601482        -1.934204        -1.596344
 H         3.368885         1.400158        -2.088137
