19
Iteration:  3129charge 0 multiplicity 1
 C        -0.120713         0.110587        -0.412299
 C         1.327024         0.005524         0.169644
 C         2.142714         0.965385         1.193170
 C         3.385862         0.413996         0.536219
 C         3.104999        -1.182924         0.395380
 C         3.217215        -1.150449        -1.136184
 C         2.542901         0.256574        -0.880428
 O         2.122514         1.208782        -1.812471
 O         1.722083        -1.263077         0.750671
 H        -0.885721        -0.259904         0.392358
 H        -0.384543         1.199683        -0.638392
 H        -0.287804        -0.617907        -1.156713
 H         2.202658         2.143405         1.022891
 H         1.827025         0.845523         2.370190
 H         4.446894         0.768952         0.432458
 H         3.757585        -1.853924         0.982889
 H         4.281881        -1.040650        -1.486776
 H         2.543004        -1.873767        -1.677829
 H         2.305285         2.061203        -1.444504
