19
Iteration:   805
 C        -0.217392        -0.007609        -0.285484
 C         1.268554         0.019309         0.143313
 C         2.025723         0.928979         1.227047
 C         3.332456         0.419456         0.521466
 C         3.100474        -1.111720         0.428260
 C         3.178699        -1.017042        -1.054306
 C         2.579978         0.299312        -0.814173
 O         2.453800         1.191290        -1.976525
 O         1.634038        -1.275389         0.670062
 H        -0.727479        -0.450816         0.508193
 H        -0.723552         0.971215        -0.496588
 H        -0.205445        -0.687212        -1.095710
 H         1.826320         2.001006         0.992705
 H         1.919160         0.678123         2.339159
 H         4.332161         0.616414         0.679188
 H         3.690809        -1.844294         0.949823
 H         4.250193        -0.881066        -1.412250
 H         2.586156        -1.888804        -1.644955
 H         2.947193         1.996666        -1.721578
