19
Iteration:   653charge 0 multiplicity 1
 C        -0.210980         0.119645        -0.220618
 C         1.288122         0.080968         0.111665
 C         2.106134         1.003889         1.101895
 C         3.330010         0.321345         0.525709
 C         3.129482        -1.175800         0.444640
 C         3.161393        -1.104662        -1.083454
 C         2.539522         0.243381        -0.888993
 O         2.427037         1.296908        -1.758760
 O         1.645362        -1.306228         0.658233
 H        -0.733582        -0.186106         0.682052
 H        -0.442630         1.111434        -0.761097
 H        -0.395796        -0.705088        -0.932729
 H         2.039761         2.019110         0.957099
 H         1.899725         0.845408         2.154231
 H         4.361345         0.673962         0.487903
 H         3.703022        -1.992307         0.925142
 H         4.158018        -1.023494        -1.360947
 H         2.654521        -1.830387        -1.673962
 H         2.000237         0.911200        -2.559985
