19
Iteration:  1528charge 0 multiplicity 1
 C        -0.100242        -0.000772        -0.433235
 C         1.255891         0.023264         0.188190
 C         1.892942         0.942061         1.296636
 C         3.279945         0.443533         0.594159
 C         3.169624        -1.131417         0.486789
 C         3.215596        -1.164078        -1.127843
 C         2.529719         0.267790        -0.905843
 O         2.343051         1.321651        -1.920058
 O         1.738782        -1.338095         0.730414
 H        -0.887645        -0.247908         0.206257
 H        -0.340378         1.066607        -0.720883
 H         0.022351        -0.558366        -1.551539
 H         1.745794         2.050960         1.069174
 H         1.832684         0.663259         2.335687
 H         4.216284         1.107111         0.774742
 H         3.887052        -1.735416         1.091858
 H         4.170878        -1.132041        -1.564243
 H         2.434525        -1.758770        -1.609860
 H         3.207422         1.772899        -1.985933
