19
Iteration:  2062
 C        -0.250554        -0.038873        -0.146829
 C         1.223383        -0.037742         0.217769
 C         1.891614         0.933845         1.145078
 C         3.245616         0.501026         0.529347
 C         3.082919        -1.151581         0.393194
 C         3.261095        -1.073118        -1.090318
 C         2.559817         0.304900        -0.909180
 O         2.640929         1.305313        -1.879782
 O         1.756245        -1.336424         0.619675
 H        -1.008986        -0.245423         0.721508
 H        -0.482852         0.961847        -0.357843
 H        -0.628397        -0.631405        -1.005640
 H         1.720216         1.998084         0.881599
 H         1.615616         0.877417         2.233234
 H         4.202521         0.999323         0.781919
 H         3.806930        -1.708680         0.983289
 H         4.274443        -1.011114        -1.388120
 H         2.690441        -1.755129        -1.687003
 H         1.829271         1.284189        -2.478304
