19
Iteration:  2976charge 0 multiplicity 1
 C        -0.043462        -0.020752        -0.403249
 C         1.293700        -0.027596         0.236604
 C         2.106871         0.924831         1.189235
 C         3.321446         0.442267         0.494422
 C         3.160488        -1.175073         0.379533
 C         3.115835        -1.083112        -1.096485
 C         2.573988         0.304595        -0.873427
 O         2.244845         1.268806        -1.864671
 O         1.700758        -1.264523         0.775142
 H        -0.881325        -0.067171         0.426694
 H        -0.270653         1.052149        -0.820803
 H        -0.149979        -0.542598        -1.308912
 H         1.742556         1.902171         0.919955
 H         1.982755         0.723913         2.243728
 H         4.361035         0.769820         0.676911
 H         3.685504        -1.881966         1.038354
 H         4.194360        -1.036578        -1.524079
 H         2.632667        -1.796380        -1.791100
 H         1.753735         1.957330        -1.352447
