19
Iteration:  2378charge 0 multiplicity 1
 C        -0.207459        -0.046728        -0.166991
 C         1.271794        -0.058018         0.129537
 C         1.942064         0.990113         1.088784
 C         3.232327         0.424609         0.516808
 C         3.132582        -1.096658         0.480624
 C         3.340392        -1.088215        -1.049656
 C         2.522552         0.291346        -0.966991
 O         2.508981         1.389761        -1.785095
 O         1.648639        -1.379141         0.620679
 H        -0.726423        -0.149751         0.972685
 H        -0.515731         0.915560        -0.612695
 H        -0.614380        -0.876556        -0.720867
 H         1.780933         1.963639         0.697052
 H         1.854944         0.920517         2.175334
 H         4.239201         0.775062         0.625949
 H         3.785268        -1.808754         1.034636
 H         4.409670        -0.790539        -1.362708
 H         2.941275        -1.887129        -1.758101
 H         2.041098         1.306886        -2.611244
