19
Iteration:   470charge 0 multiplicity 1
 C        -0.148342         0.080086        -0.195380
 C         1.301400         0.137560         0.156271
 C         2.022304         0.955435         1.241700
 C         3.344289         0.375088         0.555368
 C         3.085619        -1.269557         0.374154
 C         3.084291        -1.092076        -1.117681
 C         2.564896         0.306047        -0.853508
 O         2.484315         1.217428        -1.897226
 O         1.651060        -1.224180         0.647214
 H        -0.757676         0.055876         0.692710
 H        -0.414378         1.012237        -0.647899
 H        -0.359588        -0.701374        -0.832339
 H         1.975610         2.040896         1.195130
 H         1.873151         0.745741         2.336309
 H         4.263478         0.839885         0.734710
 H         3.737923        -2.064637         0.809668
 H         4.111254        -1.001544        -1.737239
 H         2.427377        -1.939457        -1.554817
 H         2.451046         0.749852        -2.732390
