19
Iteration:  3196
 C        -0.294826         0.085959         0.020091
 C         1.246643         0.020830         0.138368
 C         1.993436         0.878719         1.156471
 C         3.283693         0.366093         0.391318
 C         3.160490        -1.098418         0.398364
 C         3.257974        -1.125018        -1.145786
 C         2.496563         0.242063        -0.912220
 O         2.563984         1.273907        -1.938002
 O         1.714996        -1.262065         0.673665
 H        -0.784097        -0.082167         0.977833
 H        -0.648225         0.996338        -0.502067
 H        -0.612437        -0.772602        -0.598254
 H         2.022800         2.027375         0.993497
 H         1.668194         0.654027         2.257613
 H         4.281760         0.900379         0.456920
 H         3.614533        -1.769652         1.060945
 H         4.311487        -0.913140        -1.324223
 H         2.727554        -1.999651        -1.625284
 H         1.763654         1.859442        -1.843503
