19
Iteration:  2113charge 0 multiplicity 1
 C        -0.174661        -0.007219        -0.243409
 C         1.299954         0.057153         0.102382
 C         1.953323         0.974292         1.213040
 C         3.261604         0.439016         0.578149
 C         3.166455        -1.193337         0.429104
 C         3.278012        -1.094005        -1.101339
 C         2.564969         0.252630        -0.849421
 O         2.344276         1.242698        -1.864429
 O         1.662667        -1.268612         0.606231
 H        -0.714207        -0.259755         0.704392
 H        -0.779479         0.907624        -0.586329
 H        -0.357697        -0.742393        -0.953374
 H         1.923121         2.089774         0.986878
 H         1.869252         0.921451         2.290359
 H         4.302720         0.853873         0.696087
 H         3.755142        -1.944686         0.870744
 H         4.316846        -0.851111        -1.579443
 H         2.771433        -1.957486        -1.661487
 H         3.125323         1.787622        -1.987716
