19
Iteration:  1694
 C        -0.101624         0.102538        -0.400034
 C         1.276966        -0.066976         0.055743
 C         1.920310         0.988799         1.081592
 C         3.265467         0.388318         0.569845
 C         3.188500        -1.135000         0.433440
 C         3.250554        -1.091478        -1.060057
 C         2.485150         0.275115        -0.831860
 O         2.273535         1.301282        -1.722197
 O         1.779539        -1.386583         0.722456
 H        -0.926421        -0.246758         0.308432
 H        -0.409590         1.082750        -0.568974
 H        -0.431391        -0.344489        -1.441082
 H         1.935814         1.971386         0.617982
 H         1.585680         1.047132         2.174590
 H         4.246821         0.869968         0.708075
 H         3.845083        -1.768053         1.021571
 H         4.222457        -0.850810        -1.228244
 H         2.968065        -1.943218        -1.625581
 H         3.210269         1.538991        -1.954709
