19
Iteration:  1127
 C        -0.163153         0.018198        -0.261501
 C         1.260248        -0.001170         0.215611
 C         1.890543         0.923791         1.215127
 C         3.274330         0.483211         0.516151
 C         3.062074        -1.119013         0.464045
 C         3.342256        -1.166600        -1.078283
 C         2.576068         0.311550        -0.934475
 O         2.409616         1.293697        -1.897962
 O         1.683090        -1.312971         0.623827
 H        -0.940391        -0.074842         0.547186
 H        -0.407903         0.894203        -0.696847
 H        -0.255887        -0.720140        -1.073056
 H         1.579265         2.039497         1.363190
 H         1.668141         0.518621         2.237152
 H         4.325680         0.989722         0.685073
 H         3.576129        -1.838222         1.070888
 H         4.461954        -1.047909        -1.258632
 H         2.834154        -1.967187        -1.775974
 H         3.288427         1.650330        -2.163254
