19
Iteration:  3018charge 0 multiplicity 1
 C        -0.279130         0.106583        -0.213747
 C         1.267256        -0.085277         0.150174
 C         1.984489         0.939382         1.151879
 C         3.347634         0.439401         0.499621
 C         3.189421        -1.140101         0.409747
 C         3.221939        -1.089839        -1.116058
 C         2.487695         0.230700        -0.840561
 O         2.438719         1.238769        -1.786280
 O         1.771627        -1.251217         0.616845
 H        -0.866216         0.132008         0.848958
 H        -0.503700         1.089370        -0.724952
 H        -0.581030        -0.667790        -0.848074
 H         1.989331         1.967436         0.709326
 H         1.851722         0.915088         2.294636
 H         4.280941         0.918068         0.619442
 H         3.791154        -1.898657         0.931700
 H         4.221273        -0.890179        -1.611272
 H         2.823979        -1.981071        -1.617280
 H         1.529603         1.336711        -2.189273
