19
Iteration:  2513
 C        -0.100683        -0.023942        -0.343349
 C         1.302410        -0.035310         0.228305
 C         1.950593         0.981614         1.236395
 C         3.232350         0.417769         0.493985
 C         3.127005        -1.147535         0.424648
 C         3.191812        -1.029979        -1.142883
 C         2.542942         0.308410        -0.880604
 O         2.432097         1.282900        -1.819473
 O         1.765856        -1.306380         0.713977
 H        -1.058641        -0.027208         0.343627
 H        -0.365284         0.840086        -0.924867
 H        -0.115711        -0.942827        -1.027222
 H         1.763529         2.065955         1.050655
 H         1.855116         0.772691         2.296476
 H         4.264811         0.854090         0.621156
 H         3.707294        -1.877469         0.967591
 H         4.192658        -0.875185        -1.520717
 H         2.563866        -1.735963        -1.760272
 H         1.602911         1.185701        -2.355504
