19
Iteration:  3656charge 0 multiplicity 1
 C        -0.107365         0.104494        -0.230128
 C         1.366236         0.028622         0.125183
 C         2.062612         0.964107         1.098200
 C         3.360464         0.572004         0.460715
 C         3.162736        -1.170746         0.460222
 C         3.232239        -1.072818        -1.128513
 C         2.611363         0.247056        -0.893587
 O         2.230253         1.210830        -1.865858
 O         1.634392        -1.368382         0.759915
 H        -0.591706        -0.220765         0.649940
 H        -0.404127         1.070678        -0.498357
 H        -0.340508        -0.669546        -0.982537
 H         1.665128         2.024728         1.134240
 H         1.839875         0.576276         2.088837
 H         4.349751         0.896117         0.651370
 H         3.646764        -2.010129         0.997478
 H         4.342090        -1.153346        -1.425695
 H         2.673604        -1.882370        -1.617968
 H         1.255186         1.353015        -1.816881
