19
Iteration:  2172
 C        -0.132559         0.145210        -0.430803
 C         1.282721         0.001275         0.162982
 C         1.929508         0.887694         1.229064
 C         3.261405         0.424518         0.538688
 C         3.149165        -1.058132         0.469544
 C         3.226326        -1.140210        -1.141839
 C         2.503118         0.207242        -0.864219
 O         2.265312         1.275703        -1.754787
 O         1.816468        -1.312413         0.687596
 H        -1.017103         0.151746         0.247425
 H         0.030524         0.964864        -0.987357
 H        -0.250285        -0.739968        -1.062331
 H         1.816506         1.953830         1.061242
 H         1.943406         0.570147         2.337802
 H         4.259569         0.817587         0.516493
 H         3.910331        -1.717136         1.027091
 H         4.227645        -1.063376        -1.576094
 H         2.608114        -1.923285        -1.568979
 H         3.044587         1.496331        -2.279907
