19
Iteration:  2981
 C        -0.021957         0.040208        -0.375444
 C         1.349431        -0.082646         0.224009
 C         2.069513         0.915552         1.190971
 C         3.323125         0.472013         0.481094
 C         3.116931        -1.153447         0.408114
 C         3.135141        -1.113303        -1.142514
 C         2.571789         0.286762        -0.882221
 O         2.249654         1.296103        -1.864494
 O         1.710025        -1.285390         0.785553
 H        -0.787916        -0.126968         0.304293
 H        -0.187751         0.999121        -0.771696
 H        -0.262382        -0.657344        -1.293266
 H         1.695712         1.926536         0.882188
 H         1.901822         0.841037         2.294728
 H         4.361081         0.811215         0.745428
 H         3.631597        -1.880317         1.035702
 H         4.125545        -1.032512        -1.492543
 H         2.505389        -1.808818        -1.721507
 H         1.664092         1.906942        -1.373525
