19
Iteration:  3962
 C        -0.044692         0.080435        -0.341236
 C         1.379940         0.031123         0.240180
 C         2.071195         1.058582         1.159104
 C         3.409512         0.410903         0.528368
 C         3.166228        -1.177179         0.398880
 C         3.241035        -1.108745        -1.112314
 C         2.517212         0.247469        -0.840811
 O         2.040051         1.138302        -1.784239
 O         1.684172        -1.290311         0.667771
 H        -0.811411        -0.071242         0.455736
 H        -0.290014         1.162333        -0.644107
 H        -0.512944        -0.553155        -1.208106
 H         1.844705         2.110685         0.809246
 H         2.015180         1.130929         2.244123
 H         4.468644         0.751045         0.670163
 H         3.751018        -1.911964         0.949301
 H         4.120143        -1.046658        -1.737135
 H         2.760738        -1.876066        -1.656997
 H         2.697612         1.751435        -2.203914
