19
Iteration:  3551charge 0 multiplicity 1
 C        -0.277127        -0.030258         0.050997
 C         1.235042        -0.029197         0.141244
 C         1.960054         1.063384         1.104141
 C         3.230015         0.449904         0.396100
 C         3.221423        -1.082301         0.330794
 C         3.249867        -1.066040        -1.132723
 C         2.468601         0.197914        -0.909021
 O         2.549308         1.251050        -1.740119
 O         1.717655        -1.316099         0.619899
 H        -0.639373        -0.071592         1.039774
 H        -0.529305         1.022993        -0.428516
 H        -0.664813        -0.808514        -0.763109
 H         1.908919         2.077070         0.620052
 H         1.746632         0.908396         2.207891
 H         4.245392         0.905587         0.438305
 H         3.753421        -1.706852         1.062853
 H         4.241132        -0.996962        -1.549038
 H         2.645661        -1.850798        -1.602641
 H         2.496793         1.054546        -2.684295
