19
Iteration:  3990
 C        -0.088782         0.041039        -0.287430
 C         1.335510         0.014819         0.185191
 C         2.046853         0.909522         1.133690
 C         3.323170         0.432702         0.438065
 C         3.149105        -1.145650         0.478629
 C         3.160598        -1.117026        -1.152535
 C         2.447619         0.224336        -0.937053
 O         2.231599         1.297439        -1.813962
 O         1.756908        -1.265854         0.831228
 H        -0.725166        -0.107933         0.646153
 H        -0.262492         0.991830        -0.699692
 H        -0.411758        -0.565191        -1.064484
 H         1.812437         1.978801         1.008543
 H         1.995468         0.748629         2.233425
 H         4.208020         1.040951         0.448373
 H         3.834421        -1.845406         1.008564
 H         4.147590        -0.933855        -1.661238
 H         2.631149        -1.899804        -1.839213
 H         2.984484         1.303854        -2.456129
