19
Iteration:  2580charge 0 multiplicity 1
 C        -0.243285        -0.037269        -0.051645
 C         1.285493        -0.014959         0.065377
 C         1.941834         0.980065         1.025693
 C         3.233357         0.371957         0.567306
 C         3.136040        -1.229003         0.478145
 C         3.365224        -0.938085        -1.076132
 C         2.500277         0.228001        -0.882216
 O         2.461906         1.381629        -1.852810
 O         1.660843        -1.323329         0.606804
 H        -0.460608        -0.246358         1.014982
 H        -0.635273         0.979652        -0.211653
 H        -0.502878        -0.818858        -0.793734
 H         2.006877         2.002247         0.606877
 H         1.760284         1.091756         2.119834
 H         4.302132         0.713362         0.610477
 H         3.645709        -2.103770         1.018325
 H         4.394015        -0.624676        -1.210259
 H         3.059157        -1.686883        -1.832881
 H         2.362437         0.969859        -2.711835
