19
Iteration:   365
 C        -0.168044         0.066148        -0.292028
 C         1.280991         0.118318         0.126693
 C         2.126318         0.978496         1.255756
 C         3.340358         0.273876         0.493818
 C         3.101780        -1.234538         0.427726
 C         3.200740        -1.104288        -1.117196
 C         2.530195         0.232284        -0.869263
 O         2.455942         1.256216        -1.842133
 O         1.584122        -1.146912         0.679864
 H        -0.894051        -0.143440         0.607611
 H        -0.555631         0.910772        -0.900934
 H        -0.331086        -0.951294        -0.885692
 H         2.333361         2.085038         1.123017
 H         1.976240         0.542981         2.253440
 H         4.410049         0.684491         0.618981
 H         3.600938        -1.921992         1.068911
 H         4.148281        -0.863993        -1.450799
 H         2.715270        -1.748598        -1.788227
 H         1.536430         1.235142        -2.161587
