19
Iteration:  3854
 C        -0.237208        -0.005434        -0.039031
 C         1.345523         0.010952         0.081092
 C         2.067621         0.952137         1.103169
 C         3.310397         0.399382         0.453180
 C         3.122196        -1.127868         0.422095
 C         3.247292        -1.096099        -1.200449
 C         2.552778         0.267855        -0.914706
 O         2.328106         1.279817        -1.844608
 O         1.644825        -1.215760         0.777551
 H        -0.528361        -0.260384         0.949231
 H        -0.829443         0.818892        -0.541928
 H        -0.459821        -0.903270        -0.814397
 H         2.004248         2.009349         0.798554
 H         1.791376         0.730358         2.123621
 H         4.322108         0.855081         0.406271
 H         3.667039        -1.933617         0.901997
 H         4.337940        -0.888467        -1.379064
 H         2.687780        -1.968266        -1.564719
 H         3.057094         1.246043        -2.474349
