19
Iteration:  1150
 C        -0.173475         0.112704        -0.366349
 C         1.334735        -0.041535         0.033229
 C         1.933816         0.888175         1.102176
 C         3.264168         0.425289         0.580651
 C         3.190928        -1.093922         0.536000
 C         3.238291        -1.048503        -1.017030
 C         2.518219         0.225468        -0.874025
 O         2.355521         1.282380        -1.780627
 O         1.706707        -1.351301         0.677176
 H        -0.610779        -0.288381         0.561666
 H        -0.471677         1.095918        -0.459218
 H        -0.449305        -0.413473        -1.261197
 H         1.824744         2.038267         0.942679
 H         1.541721         0.747910         2.117601
 H         4.315596         0.964114         0.655946
 H         3.794164        -1.829215         1.043622
 H         4.241060        -0.760670        -1.523112
 H         2.629214        -1.773974        -1.706584
 H         3.032239         1.240610        -2.452653
