19
Iteration:  3267charge 0 multiplicity 1
 C        -0.151511         0.089805        -0.187597
 C         1.296766         0.109636         0.201808
 C         2.039990         0.867719         1.249751
 C         3.297695         0.442601         0.380418
 C         3.159861        -1.138815         0.409563
 C         3.169410        -1.148263        -1.131650
 C         2.453542         0.269042        -0.890899
 O         2.429127         1.186347        -1.879775
 O         1.718810        -1.264533         0.691377
 H        -0.805873        -0.395440         0.575299
 H        -0.469179         1.142728        -0.401678
 H        -0.253068        -0.547106        -1.127681
 H         1.856348         1.891008         1.181304
 H         1.878576         0.509189         2.211048
 H         4.275858         0.866879         0.173709
 H         3.797558        -1.716660         1.182946
 H         4.206563        -0.878533        -1.430850
 H         2.687177        -1.925087        -1.675480
 H         1.800243         1.934623        -1.859297
