19
Iteration:  2717charge 0 multiplicity 1
 C        -0.264919         0.050770        -0.100919
 C         1.285064        -0.042740         0.134868
 C         1.889649         0.892061         1.162666
 C         3.222983         0.490415         0.504981
 C         3.157802        -1.114570         0.353396
 C         3.221908        -0.997145        -1.182662
 C         2.558013         0.255336        -0.920942
 O         2.582970         1.276574        -1.818093
 O         1.756694        -1.332357         0.702830
 H        -0.748145        -0.121491         0.934446
 H        -0.769182         0.893381        -0.646061
 H        -0.540059        -0.826222        -0.797781
 H         1.693827         2.006952         1.133805
 H         1.708099         0.586261         2.181447
 H         4.241077         0.969032         0.582816
 H         3.729166        -1.820216         0.913425
 H         4.242031        -0.971380        -1.471102
 H         2.762031        -1.800544        -1.640000
 H         1.938663         1.104941        -2.569222
