19
Iteration:  2397charge 0 multiplicity 1
 C        -0.279687        -0.138727        -0.039591
 C         1.251634         0.052871         0.069012
 C         1.937141         0.918539         1.118600
 C         3.275082         0.453307         0.501718
 C         3.049361        -1.152294         0.445132
 C         3.333282        -1.041173        -1.087670
 C         2.618821         0.310436        -0.834184
 O         2.558182         1.333536        -1.872265
 O         1.684087        -1.253256         0.547331
 H        -0.708752        -0.397848         0.976907
 H        -0.799658         0.769293        -0.583669
 H        -0.381257        -0.960297        -0.675698
 H         1.842790         2.003008         0.989749
 H         1.650720         0.590988         2.152690
 H         4.217265         1.008630         0.698382
 H         3.415184        -1.850270         1.282300
 H         4.450304        -0.907932        -1.282482
 H         2.809167        -1.765488        -1.735753
 H         1.935762         0.933862        -2.513402
