19
Iteration:   308
 C        -0.145766         0.268619        -0.222957
 C         1.273471        -0.061913         0.084738
 C         1.989853         0.926532         1.079847
 C         3.335907         0.447312         0.430533
 C         3.104291        -1.100417         0.422393
 C         3.129436        -1.231073        -1.125328
 C         2.508305         0.158502        -0.884741
 O         2.508251         1.310718        -1.676845
 O         1.695601        -1.345480         0.725213
 H        -0.690450         0.175647         0.833448
 H        -0.238624         1.344309        -0.495059
 H        -0.616681        -0.334342        -1.056826
 H         1.814499         1.970845         0.778650
 H         1.753508         0.807814         2.180728
 H         4.337887         0.729419         0.472741
 H         3.750582        -1.617936         1.204587
 H         4.047816        -1.051714        -1.721820
 H         2.556591        -2.024528        -1.589919
 H         2.208691         1.195681        -2.593272
