19
Iteration:   856charge 0 multiplicity 1
 C        -0.140783         0.146740        -0.334604
 C         1.337110        -0.046006         0.045961
 C         1.933164         0.965672         1.076563
 C         3.286827         0.453541         0.617888
 C         3.175671        -1.176075         0.510077
 C         3.190091        -1.077111        -1.159380
 C         2.553868         0.181391        -0.807952
 O         2.348917         1.310744        -1.727904
 O         1.729147        -1.369889         0.678348
 H        -0.730976         0.115203         0.647560
 H        -0.178905         1.196551        -0.781410
 H        -0.627212        -0.674389        -0.974701
 H         1.950150         2.010713         0.616875
 H         1.575119         0.950452         2.128023
 H         4.176444         1.159646         0.796899
 H         3.761129        -1.909669         1.061399
 H         4.151927        -0.936793        -1.627364
 H         2.615587        -1.781456        -1.612922
 H         2.553599         0.968328        -2.641782
