19
Iteration:  1925charge 0 multiplicity 1
 C        -0.205222        -0.032088        -0.149801
 C         1.291205        -0.018137         0.091083
 C         1.941282         1.058084         1.064383
 C         3.233139         0.369816         0.565767
 C         3.076402        -1.203908         0.378264
 C         3.416833        -1.046030        -1.097538
 C         2.627672         0.261912        -0.891529
 O         2.357761         1.279750        -1.704954
 O         1.621535        -1.293977         0.600346
 H        -0.665017        -0.323745         0.746836
 H        -0.526421         0.980135        -0.516529
 H        -0.295168        -0.683515        -0.940715
 H         2.132065         2.100542         0.679028
 H         1.492020         1.181934         2.079247
 H         4.091290         0.944574         0.834747
 H         3.704543        -1.789187         1.155367
 H         4.541411        -0.716422        -1.252888
 H         3.140321        -1.881270        -1.841682
 H         2.659046         1.269648        -2.600865
