19
Iteration:  1130charge 0 multiplicity 1
 C        -0.147047         0.013544        -0.267532
 C         1.249362        -0.022830         0.166200
 C         1.895881         0.906288         1.226353
 C         3.257411         0.462266         0.504965
 C         3.066980        -1.121332         0.464586
 C         3.332355        -1.157984        -1.073878
 C         2.583010         0.327199        -0.922921
 O         2.396792         1.308742        -1.896433
 O         1.695942        -1.299376         0.646972
 H        -0.926570        -0.059151         0.447405
 H        -0.455737         1.058449        -0.621344
 H        -0.358006        -0.673355        -1.066312
 H         1.621491         1.994998         1.274900
 H         1.774480         0.507223         2.222414
 H         4.275068         0.963877         0.727188
 H         3.622584        -1.782612         1.157572
 H         4.497851        -1.088760        -1.242562
 H         2.833234        -2.011769        -1.670403
 H         3.297350         1.590754        -2.221230
