19
Iteration:   601charge 0 multiplicity 1
 C        -0.230713         0.201512        -0.236812
 C         1.228574         0.070350         0.145259
 C         2.053514         0.874292         1.156456
 C         3.311827         0.413932         0.454121
 C         3.141586        -1.196773         0.430044
 C         3.153734        -1.185757        -1.103501
 C         2.477943         0.247064        -0.848974
 O         2.454104         1.199755        -1.905508
 O         1.743602        -1.273464         0.710127
 H        -0.754544        -0.216633         0.723444
 H        -0.370446         1.351496        -0.399412
 H        -0.583935        -0.347557        -1.095490
 H         2.032685         1.980143         1.025258
 H         1.850544         0.664789         2.230234
 H         4.278395         0.760763         0.478750
 H         3.660570        -1.791719         1.200443
 H         4.045569        -0.836304        -1.646462
 H         2.691200        -1.903768        -1.706709
 H         2.874750         1.948937        -1.455179
