19
Iteration:   830
 C        -0.167565        -0.009790        -0.262042
 C         1.307994         0.046216         0.144500
 C         2.013563         0.997334         1.217857
 C         3.263627         0.417647         0.481215
 C         3.022213        -1.167100         0.468650
 C         3.319231        -1.114233        -1.078427
 C         2.577903         0.233729        -0.857691
 O         2.325793         1.313671        -1.847800
 O         1.649147        -1.265363         0.619877
 H        -0.936643        -0.268943         0.512843
 H        -0.279836         0.984866        -0.607664
 H        -0.212216        -0.721186        -1.074738
 H         2.034945         2.012481         1.062628
 H         1.886703         0.707306         2.212779
 H         4.319319         0.747020         0.640669
 H         3.593022        -1.922481         1.056905
 H         4.368783        -0.902149        -1.254798
 H         2.931810        -2.012028        -1.670889
 H         3.165759         1.296508        -2.406085
