19
Iteration:  1176charge 0 multiplicity 1
 C        -0.057013         0.039962        -0.385969
 C         1.317780        -0.052946         0.215197
 C         1.951592         1.073762         1.182521
 C         3.170207         0.472310         0.593531
 C         3.105199        -1.193528         0.384487
 C         3.330123        -1.124934        -1.080823
 C         2.600349         0.258763        -0.820794
 O         2.274833         1.234644        -1.753029
 O         1.687865        -1.304670         0.618689
 H        -0.853548        -0.383093         0.220931
 H        -0.482428         1.218501        -0.462517
 H        -0.074006        -0.490857        -1.376445
 H         1.825768         1.960313         0.654730
 H         1.721341         1.316465         2.223091
 H         4.146174         0.761206         0.771427
 H         3.737118        -1.943680         0.929318
 H         4.404035        -0.899901        -1.427807
 H         2.766187        -1.750760        -1.772827
 H         2.906907         1.182380        -2.464951
