19
Iteration:   335
 C        -0.092919         0.131842        -0.239848
 C         1.288010         0.071983         0.223013
 C         2.022820         0.999115         1.204542
 C         3.300540         0.360074         0.489030
 C         3.042440        -1.282544         0.385240
 C         3.105404        -1.122930        -1.075257
 C         2.597064         0.288502        -0.860291
 O         2.468432         1.298617        -1.858809
 O         1.669887        -1.286821         0.670544
 H        -0.826217         0.146159         0.541412
 H        -0.300802         1.010808        -0.882086
 H        -0.207056        -0.780717        -0.887285
 H         1.959816         2.069127         0.836726
 H         1.901286         0.722936         2.242678
 H         4.491019         0.602146         0.608138
 H         3.647139        -1.922114         1.000066
 H         4.115400        -1.037609        -1.507557
 H         2.550493        -1.793144        -1.755389
 H         1.824296         0.980060        -2.501927
