19
Iteration:  4385
 C        -0.261767        -0.006346         0.018982
 C         1.289197         0.005286         0.075662
 C         2.037499         0.868446         1.200735
 C         3.243754         0.488243         0.413659
 C         3.100825        -1.132882         0.433069
 C         3.233945        -1.139735        -1.076698
 C         2.499205         0.304073        -0.994416
 O         2.527184         1.304127        -1.944537
 O         1.734901        -1.262128         0.682843
 H        -0.859329        -0.092337         1.037504
 H        -0.675841         0.997051        -0.392446
 H        -0.503457        -0.860273        -0.540893
 H         1.817981         1.914194         1.168516
 H         1.980662         0.535676         2.208354
 H         4.212655         0.946946         0.680753
 H         3.553167        -1.592837         1.241327
 H         4.293420        -0.903666        -1.347018
 H         2.921540        -1.880549        -1.840670
 H         1.888262         1.156550        -2.694503
