19
Iteration:  1627charge 0 multiplicity 1
 C        -0.143543         0.039040        -0.345187
 C         1.276536        -0.019959         0.187416
 C         1.886197         0.917693         1.197710
 C         3.228433         0.400139         0.608230
 C         3.180624        -1.112345         0.353401
 C         3.307877        -1.071160        -1.141050
 C         2.530856         0.300442        -0.764044
 O         2.374928         1.264986        -1.819280
 O         1.715769        -1.285087         0.654563
 H        -0.874442         0.100454         0.487314
 H        -0.304680         0.949010        -0.897967
 H        -0.419293        -0.934310        -1.060961
 H         1.926205         1.968061         0.798415
 H         1.462458         0.767114         2.207831
 H         4.227817         0.950380         0.711941
 H         3.776288        -1.775406         0.983346
 H         4.275141        -0.885417        -1.337965
 H         2.818800        -1.847257        -1.685014
 H         2.979883         1.118291        -2.529007
