19
Iteration:  3877charge 0 multiplicity 1
 C        -0.197036        -0.090064         0.017833
 C         1.334227         0.043167         0.226295
 C         2.016449         1.062389         1.104358
 C         3.269332         0.497969         0.505437
 C         3.152716        -1.148091         0.397481
 C         3.155156        -1.195423        -1.130849
 C         2.510219         0.251124        -0.897618
 O         2.448946         1.302633        -1.879094
 O         1.682971        -1.281999         0.569053
 H        -0.496006        -0.166879         1.002987
 H        -0.633125         0.798098        -0.558344
 H        -0.479018        -0.992152        -0.719724
 H         1.900520         2.086204         0.717061
 H         1.819663         0.968814         2.209374
 H         4.292136         0.966306         0.558881
 H         3.627869        -1.854797         1.065146
 H         4.161672        -0.940950        -1.584666
 H         2.300527        -1.762890        -1.598067
 H         3.028473         1.053179        -2.614885
