19
Iteration:  1741charge 0 multiplicity 1
 C        -0.178924        -0.098698        -0.227240
 C         1.272437         0.052035         0.042974
 C         1.993573         0.926800         1.212060
 C         3.219761         0.390986         0.620449
 C         3.113927        -1.133134         0.488969
 C         3.353835        -1.013493        -1.017425
 C         2.543846         0.304521        -0.880015
 O         2.421770         1.276119        -1.903106
 O         1.639425        -1.243971         0.547240
 H        -0.598673        -0.360734         0.868454
 H        -0.793701         0.851679        -0.614645
 H        -0.402250        -0.827211        -0.949842
 H         1.812772         1.972954         1.009540
 H         1.613919         0.589158         2.185766
 H         4.179924         0.833729         0.677158
 H         3.627517        -1.963107         1.030397
 H         4.238867        -0.857820        -1.573658
 H         2.724211        -1.758249        -1.444839
 H         3.320499         1.397066        -2.183766
