19
Iteration:  1439charge 0 multiplicity 1
 C        -0.196440         0.028916        -0.245455
 C         1.298520         0.042700         0.077036
 C         1.875835         0.862779         1.225518
 C         3.198668         0.471201         0.506441
 C         3.181993        -1.043776         0.441314
 C         3.297384        -1.111505        -1.062976
 C         2.523292         0.314911        -0.821462
 O         2.466387         1.242726        -1.867727
 O         1.691158        -1.335323         0.599844
 H        -0.637852         0.153013         0.655799
 H        -0.410293         0.961455        -0.874380
 H        -0.478918        -0.960898        -0.726157
 H         1.541199         1.909422         1.232633
 H         1.774770         0.335318         2.179731
 H         4.157795         0.932202         0.635141
 H         3.677053        -1.681046         1.170163
 H         4.200837        -0.960966        -1.604597
 H         2.614566        -1.820780        -1.514305
 H         3.413260         1.366778        -2.123778
