19
Iteration:  4809
 C        -0.087373         0.113476        -0.287519
 C         1.343216        -0.043399         0.287806
 C         2.015001         0.946569         1.156471
 C         3.270424         0.498313         0.511425
 C         3.230655        -1.070657         0.401016
 C         3.067009        -1.108880        -1.115388
 C         2.568580         0.276171        -0.851060
 O         2.298248         1.140132        -1.895375
 O         1.779752        -1.291736         0.691285
 H        -0.866515        -0.055354         0.483800
 H        -0.278723         1.150795        -0.657544
 H        -0.277444        -0.679872        -0.935015
 H         1.777854         2.011548         0.840816
 H         1.898927         0.876956         2.305638
 H         4.269727         0.983324         0.476996
 H         3.838012        -1.889442         0.756123
 H         4.122764        -1.136625        -1.530932
 H         2.585076        -1.917502        -1.577331
 H         1.325425         1.274813        -1.934438
