19
Iteration:    53charge 0 multiplicity 1
 C        -0.242541         0.122753        -0.307981
 C         1.271500         0.032646         0.162447
 C         2.079891         1.045174         1.203861
 C         3.390688         0.342924         0.548000
 C         3.105240        -1.207151         0.440887
 C         3.193179        -1.058337        -1.155065
 C         2.529696         0.260550        -0.812282
 O         2.454582         1.112338        -1.896876
 O         1.629738        -1.272059         0.691677
 H        -0.967889        -0.205418         0.500926
 H        -0.420633         1.224671        -0.649873
 H        -0.474320        -0.545702        -1.247410
 H         2.018538         2.150960         0.891151
 H         1.829429         0.811559         2.235390
 H         4.484000         0.746809         0.614337
 H         3.596145        -1.916023         1.041460
 H         4.157730        -0.837586        -1.521982
 H         2.730083        -1.813830        -1.736079
 H         2.293328         2.002323        -1.609513
