19
Iteration:  4629charge 0 multiplicity 1
 C        -0.085439         0.067415        -0.359279
 C         1.330530        -0.035117         0.133670
 C         2.155983         1.004916         1.173669
 C         3.248312         0.442292         0.353418
 C         3.195714        -1.086745         0.435914
 C         3.191287        -1.133417        -1.080041
 C         2.444106         0.179423        -0.870373
 O         2.280246         1.324663        -1.696179
 O         1.712740        -1.338302         0.792572
 H        -0.869814        -0.159730         0.362995
 H        -0.276554         1.030175        -0.824450
 H        -0.273443        -0.543039        -1.289124
 H         1.962287         2.031464         0.782984
 H         2.033259         0.844814         2.273441
 H         4.169783         1.000521         0.191429
 H         3.797395        -1.794097         1.120885
 H         4.140396        -0.917275        -1.646411
 H         2.695428        -2.023008        -1.589276
 H         1.496188         1.018249        -2.161256
