19
Iteration:  4130
 C        -0.017621         0.022233        -0.366241
 C         1.313308         0.018425         0.191729
 C         2.154897         0.997061         1.191022
 C         3.337049         0.409125         0.462870
 C         3.109354        -1.199810         0.442805
 C         3.134674        -1.084913        -1.124415
 C         2.521539         0.304907        -0.849046
 O         2.087995         1.246442        -1.803435
 O         1.746420        -1.285764         0.775608
 H        -0.856647        -0.308607         0.321865
 H        -0.292926         0.904125        -0.915735
 H         0.017424        -0.776068        -1.244134
 H         1.908371         1.988957         0.898253
 H         2.159821         0.999511         2.268752
 H         4.267523         0.816905         0.773903
 H         3.796750        -1.838190         1.036147
 H         4.134020        -0.914628        -1.492027
 H         2.634268        -1.759321        -1.874834
 H         2.756991         1.446318        -2.506547
