19
Iteration:  2921
 C        -0.220826         0.053575        -0.099659
 C         1.253009        -0.055619         0.113853
 C         1.972169         0.881713         1.140921
 C         3.271568         0.484274         0.501341
 C         3.119522        -1.152741         0.440557
 C         3.185142        -1.058370        -1.097363
 C         2.590711         0.350063        -0.936493
 O         2.466980         1.287438        -1.967659
 O         1.770632        -1.390823         0.698917
 H        -0.714328        -0.381347         0.932683
 H        -0.573394         1.182562        -0.197204
 H        -0.479966        -0.660413        -0.869337
 H         1.701435         1.867219         0.822967
 H         1.564939         0.640023         2.105160
 H         4.282182         0.881334         0.601283
 H         3.684592        -1.821544         1.113325
 H         4.243768        -1.013126        -1.596518
 H         2.492511        -1.737540        -1.644095
 H         2.474601         2.191315        -1.542108
