19
Iteration:   383charge 0 multiplicity 1
 C        -0.116545         0.129590        -0.256826
 C         1.308588         0.067764         0.195948
 C         2.059241         0.982817         1.148686
 C         3.319858         0.427758         0.514002
 C         3.040032        -1.190041         0.421452
 C         3.120098        -1.227520        -1.088991
 C         2.541595         0.285978        -0.892326
 O         2.473731         1.324125        -1.825503
 O         1.686294        -1.344772         0.661387
 H        -0.785919         0.022366         0.582907
 H        -0.316383         1.105891        -0.651007
 H        -0.276759        -0.584352        -0.985225
 H         1.771016         1.916819         0.711728
 H         1.903784         0.802544         2.226782
 H         4.284546         0.732787         0.475564
 H         3.596732        -1.934351         1.045295
 H         4.271337        -1.304555        -1.388714
 H         2.666745        -2.183362        -1.565931
 H         1.582457         1.577753        -2.133220
