19
Iteration:  4593charge 0 multiplicity 1
 C        -0.063363        -0.026198        -0.221825
 C         1.352264         0.053064         0.104125
 C         2.011163         0.936206         1.186665
 C         3.261155         0.405396         0.504031
 C         3.161132        -1.169749         0.412406
 C         3.112201        -1.053832        -1.140763
 C         2.541666         0.298377        -0.846456
 O         2.360004         1.291938        -1.875457
 O         1.710528        -1.248806         0.751900
 H        -0.635168        -0.436347         0.715742
 H        -0.612779         0.930723        -0.527341
 H        -0.121990        -0.813231        -0.910189
 H         2.086172         1.955367         0.887289
 H         1.884526         0.909786         2.263176
 H         4.258144         0.901721         0.464149
 H         3.749271        -1.977086         0.894574
 H         4.125764        -0.905984        -1.678910
 H         2.461783        -1.872993        -1.503864
 H         1.690860         0.841379        -2.408803
