19
Iteration:  2675
 C        -0.050307         0.012743        -0.370133
 C         1.361332        -0.012836         0.173902
 C         2.078226         0.999930         1.138921
 C         3.311005         0.428490         0.478963
 C         3.072787        -1.169295         0.428885
 C         3.223061        -1.042331        -1.057057
 C         2.539446         0.282786        -0.865936
 O         2.237671         1.261061        -1.776978
 O         1.664290        -1.352571         0.644667
 H        -0.649948        -0.055885         0.656949
 H        -0.299498         0.870450        -0.848261
 H        -0.126684        -0.910112        -1.035791
 H         1.682658         1.987622         0.788969
 H         1.928145         1.001919         2.196056
 H         4.382637         0.733506         0.658559
 H         3.802053        -1.806978         0.894677
 H         4.320131        -0.920700        -1.190042
 H         2.804763        -1.758548        -1.837127
 H         1.819487         1.859358        -1.107467
