19
Iteration:  4260charge 0 multiplicity 1
 C        -0.060228         0.052722        -0.222130
 C         1.343413        -0.030958         0.192184
 C         1.962343         1.005344         1.187974
 C         3.264041         0.464406         0.471308
 C         3.193241        -1.244223         0.356777
 C         3.128462        -1.046320        -1.164857
 C         2.527239         0.303905        -0.845602
 O         2.358414         1.197714        -1.945153
 O         1.730887        -1.297944         0.819115
 H        -0.706281        -0.206034         0.589076
 H        -0.286523         1.041900        -0.416529
 H        -0.313808        -0.704137        -1.042060
 H         1.793397         2.033951         0.869261
 H         1.729592         0.758248         2.244183
 H         4.269144         0.859657         0.537654
 H         4.084345        -1.779989         0.784775
 H         4.131519        -0.815525        -1.547594
 H         2.555389        -1.840832        -1.733423
 H         1.542861         1.727556        -1.781685
