19
Iteration:   915charge 0 multiplicity 1
 C        -0.248983        -0.043853        -0.309950
 C         1.244590         0.089034         0.144211
 C         2.007159         0.934435         1.245147
 C         3.305009         0.391448         0.534429
 C         3.122360        -1.120963         0.425163
 C         3.241268        -1.066275        -1.080782
 C         2.605256         0.254384        -0.849272
 O         2.514361         1.248200        -1.807293
 O         1.673347        -1.215913         0.559043
 H        -0.822848        -0.116888         0.583257
 H        -0.768937         0.747171        -0.947689
 H        -0.315107        -0.959723        -0.874072
 H         1.939401         2.049465         1.119187
 H         1.621465         0.696175         2.359730
 H         4.233785         0.782533         0.659034
 H         3.729468        -1.824793         1.045104
 H         4.331040        -1.022704        -1.266194
 H         2.653816        -1.895412        -1.662772
 H         1.610871         1.309894        -2.160311
