19
Iteration:   879charge 0 multiplicity 1
 C        -0.119002         0.137037        -0.350170
 C         1.287786        -0.086958         0.275711
 C         1.911488         0.926056         1.161835
 C         3.232154         0.423265         0.488572
 C         3.126069        -1.152070         0.391597
 C         3.235339        -1.099195        -1.097057
 C         2.612189         0.286869        -0.923250
 O         2.428850         1.361732        -1.776963
 O         1.701065        -1.374208         0.720887
 H        -0.955822         0.340998         0.392013
 H        -0.016135         1.100644        -1.019452
 H        -0.433148        -0.844462        -0.841772
 H         1.548518         1.913466         0.693350
 H         1.697026         0.817938         2.302620
 H         4.253978         0.891638         0.719059
 H         3.787538        -1.653269         1.057291
 H         4.295663        -1.233111        -1.324225
 H         2.697755        -1.811016        -1.628472
 H         2.143372         0.991620        -2.618674
