19
Iteration:  1522
 C        -0.078136         0.048552        -0.474202
 C         1.286140         0.011280         0.140457
 C         1.890674         0.922921         1.287049
 C         3.274841         0.445947         0.530067
 C         3.229524        -1.115528         0.501493
 C         3.206203        -1.167575        -1.097006
 C         2.549574         0.256391        -0.904544
 O         2.320962         1.324296        -1.847665
 O         1.720978        -1.320308         0.761774
 H        -0.952294        -0.352178         0.185629
 H        -0.451502         1.044718        -0.776610
 H        -0.206641        -0.467119        -1.320693
 H         1.650068         1.952262         1.141049
 H         1.625046         0.643169         2.343290
 H         4.149013         1.047328         0.641093
 H         3.831173        -1.860386         1.011589
 H         4.250978        -1.261476        -1.692981
 H         2.539992        -1.883533        -1.648975
 H         3.111901         1.783734        -2.108276
