19
Iteration:  4827
 C        -0.149399         0.079379        -0.168472
 C         1.331291        -0.020724         0.122517
 C         2.023219         1.046922         1.144249
 C         3.322464         0.495145         0.468666
 C         3.174808        -1.150111         0.461103
 C         3.266669        -1.136637        -1.157024
 C         2.413018         0.270268        -0.846113
 O         2.340145         1.153972        -1.885014
 O         1.779094        -1.350438         0.699351
 H        -0.768151         0.029192         0.690808
 H        -0.315338         1.093977        -0.484006
 H        -0.585767        -0.712835        -0.942969
 H         1.872007         2.099930         0.895026
 H         1.717332         0.912985         2.168670
 H         4.313847         0.999047         0.663086
 H         3.727879        -1.755142         1.191067
 H         4.085544        -0.812609        -1.790830
 H         2.516204        -1.833896        -1.658454
 H         1.480133         1.636022        -1.869407
