19
Iteration:  3489
 C        -0.087508        -0.000310        -0.321921
 C         1.308539         0.097126         0.213356
 C         2.112575         0.981109         1.211618
 C         3.281120         0.495216         0.379633
 C         3.156826        -1.195544         0.391940
 C         3.207039        -1.145413        -1.075420
 C         2.493400         0.267808        -0.775710
 O         2.293961         1.185520        -1.760061
 O         1.709994        -1.221257         0.602018
 H        -0.906274        -0.181371         0.493855
 H        -0.364195         0.961532        -0.747213
 H        -0.182653        -0.780162        -0.980561
 H         1.915677         1.996266         1.139305
 H         1.981332         0.681787         2.212277
 H         4.371353         0.838966         0.426176
 H         3.666468        -1.801095         1.155514
 H         4.179057        -0.841598        -1.421270
 H         2.765114        -1.895044        -1.765781
 H         1.376244         1.129991        -2.070698
