19
Iteration:  3548charge 0 multiplicity 1
 C        -0.258184        -0.012591         0.051292
 C         1.244759        -0.028269         0.159853
 C         1.966981         1.056247         1.100801
 C         3.228290         0.503699         0.433155
 C         3.206241        -1.079145         0.354606
 C         3.227318        -1.049568        -1.187748
 C         2.494324         0.182225        -0.898574
 O         2.555505         1.228285        -1.745637
 O         1.709897        -1.346526         0.627833
 H        -0.648793        -0.050416         1.076463
 H        -0.497971         0.977858        -0.452358
 H        -0.692688        -0.830255        -0.847658
 H         1.756839         2.081976         0.517897
 H         1.703527         0.924344         2.207851
 H         4.200972         0.898872         0.430927
 H         3.796497        -1.738830         1.017070
 H         4.280462        -1.000923        -1.620265
 H         2.588483        -1.794398        -1.678009
 H         2.481493         1.085477        -2.728548
