19
Iteration:  4045
 C        -0.221848        -0.052574         0.044870
 C         1.286356         0.027588         0.074986
 C         1.953856         1.008594         1.099254
 C         3.292559         0.362650         0.546595
 C         3.062174        -1.158511         0.365359
 C         3.271447        -1.033399        -1.124152
 C         2.545126         0.314728        -0.968648
 O         2.393079         1.252667        -1.905751
 O         1.721869        -1.258082         0.697274
 H        -0.543908        -0.097849         1.139542
 H        -0.547884         0.840136        -0.419196
 H        -0.445811        -0.905599        -0.481084
 H         1.910036         2.067262         0.768444
 H         1.749242         0.812120         2.142398
 H         4.261368         0.837231         0.504529
 H         3.826613        -1.862439         0.806549
 H         4.329974        -1.006142        -1.116042
 H         2.722174        -1.742542        -1.811185
 H         3.142656         1.054185        -2.467743
