19
Iteration:  2085charge 0 multiplicity 1
 C        -0.176858        -0.030939        -0.141284
 C         1.248824        -0.024045         0.160797
 C         1.885696         0.876653         1.211522
 C         3.212414         0.496067         0.467194
 C         3.160561        -1.087431         0.480072
 C         3.176532        -1.030406        -1.128527
 C         2.546079         0.298192        -0.910173
 O         2.608893         1.323800        -1.919019
 O         1.663296        -1.338243         0.663661
 H        -0.846552        -0.353970         0.746534
 H        -0.515479         0.912333        -0.395721
 H        -0.525014        -0.748761        -1.024540
 H         1.653608         1.934705         1.188930
 H         1.863968         0.626543         2.303223
 H         4.234654         0.815581         0.629173
 H         3.918635        -1.722487         1.052066
 H         4.071699        -0.770501        -1.596778
 H         2.648133        -1.786789        -1.651649
 H         3.030470         0.887277        -2.648430
