19
Iteration:  2353
 C        -0.147407         0.089740        -0.336757
 C         1.296275        -0.076642         0.168080
 C         1.842296         0.949427         1.088300
 C         3.224241         0.463128         0.488538
 C         3.241647        -1.166452         0.470095
 C         3.211713        -1.100388        -1.163365
 C         2.544016         0.241645        -0.844637
 O         2.434564         1.308595        -1.657996
 O         1.784144        -1.322025         0.702761
 H        -0.897504         0.088606         0.538554
 H        -0.218377         1.166313        -0.842164
 H        -0.505114        -0.664933        -1.045470
 H         1.530881         1.938619         0.703440
 H         1.690271         0.838933         2.170583
 H         4.194344         1.011674         0.346440
 H         3.912650        -1.872363         1.016509
 H         4.204995        -0.813618        -1.613912
 H         2.742479        -1.828730        -1.828688
 H         1.827437         1.076738        -2.396883
