19
Iteration:  3575
 C        -0.224884        -0.061237        -0.016973
 C         1.294366         0.057801         0.119998
 C         2.033804         0.941024         1.108010
 C         3.309548         0.469885         0.422367
 C         3.088129        -1.154180         0.493883
 C         3.260034        -1.188714        -1.131446
 C         2.515153         0.226407        -0.969525
 O         2.446889         1.433362        -1.880596
 O         1.693735        -1.285371         0.706670
 H        -0.611337        -0.306218         1.009793
 H        -0.712732         0.871258        -0.385953
 H        -0.359751        -0.803130        -0.697294
 H         1.722801         1.882054         0.819003
 H         1.857193         0.634558         2.117687
 H         4.370092         0.962556         0.507979
 H         3.560571        -1.821632         1.234707
 H         4.271760        -0.982142        -1.393057
 H         2.880231        -1.991392        -1.795974
 H         1.987561         1.237526        -2.756773
