19
Iteration:  2640charge 0 multiplicity 1
 C        -0.026379         0.070209        -0.418164
 C         1.315742         0.029993         0.193129
 C         1.953517         0.867623         1.272653
 C         3.289136         0.406963         0.548891
 C         3.192360        -1.075904         0.404752
 C         3.103468        -1.045933        -1.134898
 C         2.481102         0.260291        -0.845239
 O         2.247482         1.201010        -1.880607
 O         1.793095        -1.306769         0.752572
 H        -0.874404        -0.265995         0.218850
 H        -0.311710         1.063225        -0.861824
 H        -0.210183        -0.599619        -1.279829
 H         1.919878         1.958593         1.047360
 H         1.843376         0.624037         2.324232
 H         4.318625         0.729201         0.725693
 H         3.905261        -1.714875         0.844017
 H         4.070939        -0.834840        -1.572153
 H         2.619649        -1.843682        -1.648379
 H         2.882243         1.946849        -1.804430
