19
Iteration:  4337
 C        -0.204754         0.045455        -0.167990
 C         1.288805        -0.007839         0.182035
 C         2.015934         1.015098         1.101178
 C         3.284965         0.397575         0.514012
 C         3.184971        -1.151288         0.412134
 C         3.215735        -1.042624        -1.166074
 C         2.466977         0.279673        -0.877826
 O         2.390255         1.273438        -1.813660
 O         1.756631        -1.330334         0.734066
 H        -0.649742        -0.039746         0.814169
 H        -0.476234         1.007285        -0.434538
 H        -0.542191        -0.881414        -0.691943
 H         1.979624         2.069030         0.718140
 H         1.744665         1.035376         2.181372
 H         4.276317         0.861465         0.303986
 H         3.828936        -2.068994         0.747490
 H         4.173006        -0.977429        -1.706279
 H         2.641370        -1.857444        -1.773700
 H         2.171469         0.867343        -2.652207
