19
Iteration:  3559charge 0 multiplicity 1
 C        -0.278410        -0.023107         0.025634
 C         1.234096        -0.020612         0.124164
 C         1.969596         1.017601         1.074946
 C         3.242703         0.382174         0.374696
 C         3.205286        -1.110903         0.386644
 C         3.262136        -1.137942        -1.083298
 C         2.437005         0.244170        -0.922790
 O         2.527710         1.333947        -1.764887
 O         1.745898        -1.254862         0.609092
 H        -0.721791        -0.197499         1.008145
 H        -0.667650         0.974420        -0.299883
 H        -0.729621        -0.975918        -0.612148
 H         2.035247         2.165345         0.892837
 H         1.858311         0.934945         2.204241
 H         4.165469         0.890568         0.354949
 H         3.764998        -1.758053         1.080210
 H         4.275164        -0.860006        -1.510417
 H         2.861087        -2.059549        -1.533812
 H         2.442038         0.943290        -2.659842
