19
Iteration:   326
 C        -0.137275         0.183898        -0.230945
 C         1.300311         0.014050         0.228995
 C         2.028720         0.968000         1.115126
 C         3.229816         0.357607         0.514030
 C         3.162286        -1.268765         0.438478
 C         3.088919        -1.186293        -1.073685
 C         2.568848         0.289358        -0.899114
 O         2.475352         1.372133        -1.845820
 O         1.690040        -1.325795         0.665193
 H        -0.856047         0.214346         0.509475
 H        -0.088288         1.155545        -0.738148
 H        -0.353749        -0.566314        -0.934485
 H         1.857570         2.028683         0.937770
 H         1.959300         0.988421         2.210342
 H         4.269676         0.827475         0.577369
 H         3.708480        -2.000516         1.069282
 H         4.197459        -1.280952        -1.500026
 H         2.325986        -1.938032        -1.549343
 H         1.964273         1.071520        -2.608998
