19
Iteration:  3893
 C        -0.214717         0.000019        -0.041129
 C         1.227707         0.000196         0.165283
 C         2.003274         0.985048         1.130028
 C         3.298904         0.433596         0.447014
 C         3.177116        -1.116444         0.393379
 C         3.109959        -1.043275        -1.120960
 C         2.496291         0.302905        -0.897781
 O         2.466271         1.277900        -1.898628
 O         1.740720        -1.350245         0.687974
 H        -0.730202        -0.187180         1.024724
 H        -0.431688         0.900225        -0.569053
 H        -0.462637        -0.764530        -0.656263
 H         1.727607         2.038305         0.797976
 H         1.887814         1.144517         2.265244
 H         4.297778         0.841872         0.497172
 H         3.820182        -1.795577         1.017127
 H         4.050319        -1.131732        -1.652573
 H         2.734671        -2.028717        -1.528134
 H         3.135549         0.933784        -2.543157
