19
Iteration:  1805
 C        -0.149669         0.143463        -0.419362
 C         1.336580        -0.063682         0.068529
 C         1.936721         0.914686         1.037574
 C         3.262768         0.444999         0.519018
 C         3.142304        -1.092944         0.429980
 C         3.304763        -1.117074        -1.022961
 C         2.513680         0.213579        -0.864860
 O         2.256918         1.319105        -1.603964
 O         1.769015        -1.353893         0.668880
 H        -0.788556         0.096954         0.542686
 H        -0.286591         1.125652        -0.956644
 H        -0.381031        -0.684324        -1.081426
 H         1.795260         1.945257         0.745745
 H         1.647118         0.831321         2.128586
 H         4.248000         0.784130         0.634548
 H         3.662092        -1.808539         1.132058
 H         4.308305        -1.053557        -1.324246
 H         2.827769        -2.023484        -1.360689
 H         2.908535         1.559598        -2.274310
