19
Iteration:  1561
 C        -0.185778        -0.047472        -0.283038
 C         1.301599         0.081412         0.090764
 C         1.903774         0.951721         1.161724
 C         3.296673         0.455466         0.574966
 C         3.114262        -1.192346         0.441721
 C         3.300796        -0.986185        -1.105187
 C         2.574580         0.257823        -0.788730
 O         2.389824         1.190357        -1.848522
 O         1.628492        -1.296057         0.610735
 H        -0.612362        -0.327641         0.660472
 H        -0.468239         0.949644        -0.606717
 H        -0.279314        -1.030091        -1.018160
 H         1.844363         2.083723         0.993354
 H         1.755943         0.777903         2.221478
 H         4.295376         1.029993         0.485032
 H         3.690785        -1.827326         1.149706
 H         4.273982        -0.802682        -1.381585
 H         2.831670        -1.628063        -1.844725
 H         3.221045         1.750975        -1.770374
