19
Iteration:  4135charge 0 multiplicity 1
 C        -0.025751        -0.012700        -0.357539
 C         1.341553         0.061931         0.199753
 C         2.167621         1.018545         1.177655
 C         3.342606         0.419169         0.474880
 C         3.152939        -1.192907         0.455253
 C         3.152035        -1.114431        -1.166212
 C         2.475168         0.262457        -0.795681
 O         2.098199         1.265003        -1.795109
 O         1.702670        -1.281146         0.740517
 H        -0.799821        -0.293468         0.346625
 H        -0.325119         0.845415        -1.023628
 H         0.058983        -0.686685        -1.132060
 H         1.757998         2.024064         0.810178
 H         2.076179         0.848134         2.287746
 H         4.403089         0.813896         0.624653
 H         3.777135        -1.856014         1.078699
 H         4.202811        -0.809564        -1.439072
 H         2.513136        -1.695666        -1.838115
 H         2.762499         1.298428        -2.493875
