19
Iteration:  3544charge 0 multiplicity 1
 C        -0.236656         0.001999         0.020232
 C         1.263516        -0.036727         0.184482
 C         1.964978         1.046632         1.081709
 C         3.220048         0.547041         0.477540
 C         3.175447        -1.088093         0.398606
 C         3.205785        -1.049249        -1.247588
 C         2.523374         0.189481        -0.886557
 O         2.558382         1.222138        -1.768649
 O         1.711844        -1.373560         0.638033
 H        -0.708144        -0.066684         1.063250
 H        -0.490069         0.911608        -0.420214
 H        -0.615210        -0.680937        -0.631514
 H         1.610168         1.927997         0.597177
 H         1.707842         1.011673         2.105567
 H         4.259936         0.980006         0.425582
 H         3.836509        -1.771281         0.935116
 H         4.202719        -0.957477        -1.667532
 H         2.572425        -1.784294        -1.768735
 H         2.435500         1.051182        -2.691181
