19
Iteration:   179
 C        -0.075661         0.136059        -0.212248
 C         1.328454         0.127158         0.077961
 C         2.052296         1.020353         1.129616
 C         3.250882         0.308360         0.541833
 C         3.061878        -1.213992         0.438968
 C         3.254377        -1.153171        -1.147701
 C         2.554382         0.195847        -0.848483
 O         2.290225         1.200470        -1.782214
 O         1.641567        -1.231891         0.645558
 H        -0.651619        -0.063924         0.704792
 H        -0.206559         1.101614        -0.651526
 H        -0.231594        -0.649714        -0.956642
 H         2.116089         2.044863         0.774306
 H         1.589109         0.964733         2.114608
 H         4.258375         0.773619         0.654205
 H         3.627787        -1.810565         1.205722
 H         4.268606        -1.130628        -1.495241
 H         2.609582        -1.880471        -1.616129
 H         3.108594         1.637110        -2.113000
