19
Iteration:  2225charge 0 multiplicity 1
 C        -0.287279        -0.062629        -0.147510
 C         1.236350        -0.004018         0.129785
 C         1.946719         0.959156         1.125462
 C         3.246487         0.420395         0.586421
 C         3.158581        -1.160276         0.373910
 C         3.331063        -1.068121        -1.121425
 C         2.523882         0.288681        -0.868074
 O         2.537965         1.347417        -1.843380
 O         1.642041        -1.255767         0.605338
 H        -0.748825        -0.422499         0.928404
 H        -0.642344         0.865379        -0.504209
 H        -0.469291        -0.879593        -0.763993
 H         2.052632         2.039616         1.005144
 H         1.790712         0.858780         2.250573
 H         4.228406         0.846608         0.819424
 H         3.763713        -1.868527         1.008269
 H         4.452945        -0.735491        -1.286280
 H         3.007313        -1.975603        -1.746180
 H         2.340078         0.869547        -2.655944
