19
Iteration:  4549charge 0 multiplicity 1
 C        -0.230458         0.028326        -0.011434
 C         1.226433        -0.029032         0.258469
 C         2.005749         0.994926         1.117295
 C         3.211505         0.431033         0.344977
 C         3.213688        -1.113937         0.382125
 C         3.330772        -1.097044        -1.057946
 C         2.428795         0.244262        -0.975267
 O         2.552725         1.324105        -1.830585
 O         1.675554        -1.362923         0.591367
 H        -0.725355        -0.045688         1.043760
 H        -0.656234         1.055162        -0.276797
 H        -0.757906        -0.748233        -0.458172
 H         1.681592         1.982092         0.887230
 H         1.911697         0.795378         2.192711
 H         4.215795         0.941352         0.425685
 H         3.758083        -1.626160         1.145546
 H         4.456194        -1.031957        -1.426579
 H         2.779163        -1.888850        -1.622072
 H         1.980470         1.219116        -2.594937
