19
Iteration:  1149
 C        -0.183603         0.111885        -0.364904
 C         1.339186        -0.045053         0.030403
 C         1.942943         0.876506         1.108173
 C         3.247375         0.426219         0.576725
 C         3.190138        -1.092263         0.532261
 C         3.241751        -1.049768        -1.012970
 C         2.523926         0.226127        -0.875048
 O         2.356330         1.289668        -1.789411
 O         1.703941        -1.345176         0.681431
 H        -0.581527        -0.302781         0.602543
 H        -0.432899         1.081706        -0.483727
 H        -0.454450        -0.417553        -1.278946
 H         1.831736         2.032950         0.955377
 H         1.563930         0.743799         2.140654
 H         4.301935         0.940510         0.657877
 H         3.795032        -1.807589         1.050858
 H         4.216022        -0.779019        -1.504844
 H         2.639112        -1.775090        -1.688737
 H         3.058337         1.258367        -2.460281
