19
Iteration:  1590
 C        -0.189475         0.015366        -0.189720
 C         1.275849        -0.060076         0.082733
 C         1.862969         0.885776         1.055065
 C         3.257939         0.427700         0.530861
 C         3.159700        -1.116912         0.478856
 C         3.354012        -1.119658        -0.980250
 C         2.597486         0.238647        -0.936811
 O         2.355194         1.442422        -1.783400
 O         1.659119        -1.355332         0.579801
 H        -0.662998        -0.017102         0.776417
 H        -0.361761         1.099793        -0.668230
 H        -0.654630        -0.719230        -0.776132
 H         1.750418         1.918933         0.658246
 H         1.709499         0.975097         2.132444
 H         4.230079         0.861414         0.599510
 H         3.759024        -1.664228         1.229560
 H         4.479223        -1.071478        -1.246625
 H         3.005441        -2.023636        -1.524155
 H         3.212650         1.530596        -2.221719
