19
Iteration:  4315
 C        -0.108792         0.004147        -0.210800
 C         1.379077         0.018364         0.153885
 C         2.112578         0.925343         1.110087
 C         3.317192         0.470611         0.416072
 C         3.018193        -1.157690         0.457417
 C         3.226611        -1.160935        -1.130527
 C         2.540317         0.197972        -0.930586
 O         2.217537         1.365170        -1.726244
 O         1.717184        -1.217213         0.727171
 H        -0.710737        -0.244785         0.632314
 H        -0.244483         0.957831        -0.593472
 H        -0.094448        -0.817584        -0.975623
 H         1.812799         1.960465         0.861137
 H         1.920224         0.798810         2.184788
 H         4.352383         0.887165         0.434650
 H         3.778834        -1.828742         1.029468
 H         4.254613        -1.123671        -1.482023
 H         2.839941        -2.099506        -1.686513
 H         1.834851         1.112656        -2.604369
