19
Iteration:  1386charge 0 multiplicity 1
 C        -0.135133        -0.023144        -0.301175
 C         1.353996         0.047995         0.040916
 C         1.936035         1.032823         1.113066
 C         3.290884         0.380122         0.627659
 C         3.063036        -1.207351         0.429142
 C         3.271524        -1.081067        -1.077035
 C         2.585867         0.229576        -0.857823
 O         2.284078         1.274525        -1.738650
 O         1.690785        -1.257301         0.644316
 H        -0.600188        -0.373285         0.557951
 H        -0.585130         0.910738        -0.649569
 H        -0.120366        -0.800323        -1.151873
 H         1.816981         2.099142         0.797442
 H         1.807038         0.906218         2.168150
 H         4.231404         0.947660         0.654699
 H         3.514201        -2.004927         1.021610
 H         4.421148        -0.713586        -1.251011
 H         2.967864        -1.842857        -1.880379
 H         3.071475         1.582133        -2.255831
