19
Iteration:  1174charge 0 multiplicity 1
 C        -0.086004         0.047470        -0.376743
 C         1.322080        -0.044146         0.219259
 C         1.929042         1.064247         1.164863
 C         3.167594         0.469359         0.592325
 C         3.108540        -1.199465         0.374388
 C         3.321268        -1.122821        -1.092946
 C         2.602505         0.256551        -0.790810
 O         2.279457         1.230138        -1.743989
 O         1.709697        -1.298409         0.609862
 H        -0.813967        -0.362346         0.224866
 H        -0.396741         1.168895        -0.489437
 H        -0.030785        -0.398985        -1.348579
 H         1.763703         2.024954         0.628608
 H         1.700799         1.314932         2.195984
 H         4.228720         0.787746         0.787405
 H         3.722588        -1.920350         0.967336
 H         4.449190        -0.904465        -1.439652
 H         2.758746        -1.873532        -1.774479
 H         2.929422         1.132019        -2.486531
