19
Iteration:  4533charge 0 multiplicity 1
 C        -0.257765         0.066318         0.083801
 C         1.248407        -0.073679         0.073401
 C         2.003440         0.948143         1.098346
 C         3.233718         0.478771         0.396225
 C         3.087705        -1.070643         0.471264
 C         3.260823        -1.128342        -1.123245
 C         2.494843         0.187393        -0.957646
 O         2.515361         1.326821        -1.789388
 O         1.742800        -1.320413         0.612214
 H        -0.648611        -0.047105         1.071412
 H        -0.396259         0.958716        -0.461228
 H        -0.637767        -0.736052        -0.717276
 H         1.824812         2.057254         0.857315
 H         1.970230         0.621378         2.150265
 H         4.228296         0.932926         0.311195
 H         3.706332        -1.754046         1.123790
 H         4.177296        -0.744914        -1.524440
 H         3.284688        -2.074078        -1.660921
 H         2.034208         1.322864        -2.627082
