19
Iteration:  2983
 C        -0.011025         0.062807        -0.375157
 C         1.373608        -0.096011         0.211604
 C         2.045068         0.918378         1.188173
 C         3.331206         0.480877         0.477879
 C         3.094974        -1.147062         0.427292
 C         3.141784        -1.121998        -1.164840
 C         2.564166         0.278554        -0.884551
 O         2.255179         1.301874        -1.861181
 O         1.717945        -1.300973         0.786133
 H        -0.865749        -0.192102         0.358787
 H        -0.144386         1.033930        -0.759426
 H        -0.256877        -0.671852        -1.178800
 H         1.719368         1.963863         0.876946
 H         1.872488         0.866565         2.338890
 H         4.288316         0.818660         0.732867
 H         3.647396        -1.871728         1.011248
 H         4.145049        -1.036931        -1.498071
 H         2.461761        -1.813444        -1.663706
 H         1.616387         1.913686        -1.389403
