19
Iteration:  1747charge 0 multiplicity 1
 C        -0.170226        -0.084008        -0.231874
 C         1.276208         0.046266         0.070428
 C         1.985424         0.925272         1.221094
 C         3.248848         0.375597         0.626648
 C         3.125383        -1.128079         0.526012
 C         3.287469        -0.960446        -1.048618
 C         2.541351         0.328664        -0.861995
 O         2.440380         1.240571        -1.932321
 O         1.635854        -1.245692         0.535980
 H        -0.682371        -0.381519         0.619852
 H        -0.735947         0.658063        -0.564868
 H        -0.483340        -1.067639        -0.848966
 H         1.917204         2.018425         1.072483
 H         1.658669         0.497288         2.210876
 H         4.253457         0.871957         0.758505
 H         3.482415        -1.922395         1.160968
 H         4.294994        -0.790849        -1.597028
 H         2.700055        -1.745313        -1.656494
 H         3.365195         1.446292        -2.246164
