19
Iteration:  1961charge 0 multiplicity 1
 C        -0.104013         0.012527        -0.362010
 C         1.297241        -0.021113         0.124198
 C         1.957840         0.889095         1.258534
 C         3.263845         0.449046         0.504871
 C         3.165740        -1.060813         0.462689
 C         3.210459        -1.085389        -1.117375
 C         2.562750         0.302907        -0.852848
 O         2.319381         1.284395        -1.829283
 O         1.702634        -1.341675         0.686432
 H        -1.049777        -0.129579         0.340356
 H        -0.230049         1.011219        -0.906545
 H        -0.360470        -0.699916        -1.043552
 H         1.973378         2.012906         1.031601
 H         1.767728         0.598812         2.308427
 H         4.165424         1.036824         0.816374
 H         3.764509        -1.722137         1.075186
 H         4.157234        -1.005381        -1.617945
 H         2.578471        -1.889669        -1.471069
 H         3.156636         1.401790        -2.267590
