19
Iteration:  2656charge 0 multiplicity 1
 C        -0.102348         0.034361        -0.446311
 C         1.317209        -0.016166         0.179839
 C         2.034424         0.987096         1.219600
 C         3.325973         0.454966         0.565803
 C         3.162810        -1.270830         0.371930
 C         3.252616        -1.041759        -1.191364
 C         2.519267         0.270131        -0.806135
 O         2.187697         1.201909        -1.813688
 O         1.740271        -1.253965         0.767689
 H        -0.990067        -0.109955         0.290889
 H        -0.163314         1.075593        -0.833435
 H         0.008890        -0.760201        -1.215912
 H         1.902436         2.065332         1.031036
 H         1.784790         0.654767         2.252318
 H         4.275234         1.047384         0.597414
 H         3.552944        -2.093750         1.073764
 H         4.315462        -0.866773        -1.580205
 H         2.544452        -1.837786        -1.832440
 H         2.325130         2.173141        -1.569657
