19
Iteration:  3866charge 0 multiplicity 1
 C        -0.183113        -0.087033         0.006437
 C         1.258169         0.087871         0.112679
 C         2.010214         1.051112         1.090771
 C         3.310169         0.409226         0.430469
 C         3.066798        -1.141529         0.424009
 C         3.140877        -1.103708        -1.126133
 C         2.586529         0.252609        -0.919578
 O         2.396812         1.257065        -1.814370
 O         1.748194        -1.236711         0.626780
 H        -0.646929        -0.231238         0.932057
 H        -0.619657         0.893278        -0.372466
 H        -0.478241        -1.076437        -0.578876
 H         1.837527         2.127233         0.975160
 H         1.867522         0.805555         2.183382
 H         4.362466         0.693073         0.674085
 H         3.691227        -1.735586         1.079957
 H         4.219137        -1.143526        -1.498208
 H         2.710517        -1.893573        -1.823081
 H         2.984080         1.154841        -2.603690
