19
Iteration:  2896
 C        -0.244126         0.070878         0.025282
 C         1.204527        -0.100728         0.132524
 C         1.904179         0.979689         1.094522
 C         3.177208         0.450542         0.451604
 C         3.203467        -1.107486         0.341058
 C         3.327581        -1.083399        -1.155742
 C         2.486724         0.230634        -0.926895
 O         2.574040         1.227239        -1.829710
 O         1.747151        -1.314211         0.626023
 H        -0.850815        -0.127485         1.053891
 H        -0.311231         1.134609        -0.156929
 H        -0.640127        -0.588006        -0.727909
 H         1.842176         2.042598         0.875476
 H         1.502866         0.644306         2.078691
 H         4.097048         0.957266         0.461223
 H         3.643871        -1.830270         0.989034
 H         4.302280        -0.757457        -1.468809
 H         2.908898        -1.901821        -1.755430
 H         2.186126         2.062157        -1.454531
