19
Iteration:  3069
 C        -0.301905        -0.005306        -0.005806
 C         1.266304         0.025264         0.138013
 C         1.986700         0.963620         1.120886
 C         3.318835         0.420691         0.553311
 C         3.140522        -1.130148         0.413149
 C         3.177605        -1.067770        -1.148522
 C         2.574453         0.272306        -0.876496
 O         2.475361         1.256893        -1.908101
 O         1.727223        -1.284602         0.603435
 H        -0.700993        -0.171262         0.932942
 H        -0.684677         0.873530        -0.406163
 H        -0.613577        -0.796139        -0.740024
 H         1.892291         2.041552         0.936556
 H         1.649668         0.664733         2.114507
 H         4.174399         1.003798         0.811246
 H         3.808904        -1.777771         0.957479
 H         4.057706        -0.940647        -1.714562
 H         2.511504        -1.727587        -1.691956
 H         3.241745         1.065880        -2.469139
