19
Iteration:  1348
 C        -0.053579         0.078848        -0.452635
 C         1.318918        -0.034369         0.115297
 C         2.001310         0.941465         1.167110
 C         3.245242         0.504561         0.510895
 C         3.137293        -1.141720         0.525311
 C         3.192631        -1.092797        -1.066562
 C         2.540455         0.227129        -0.842507
 O         2.265644         1.288909        -1.762344
 O         1.725342        -1.341490         0.672920
 H        -0.786722        -0.444518         0.328640
 H        -0.404583         1.174385        -0.513542
 H        -0.198090        -0.494582        -1.326548
 H         1.600053         1.948364         1.001391
 H         1.855929         0.588626         2.232911
 H         4.295890         0.875079         0.518340
 H         3.713016        -1.933876         1.069582
 H         4.164830        -0.838776        -1.373936
 H         2.733499        -1.903306        -1.601152
 H         3.103276         1.606345        -2.189844
