19
Iteration:  2268
 C        -0.184544         0.020172        -0.199058
 C         1.306482        -0.082647         0.128185
 C         1.863045         0.976008         1.097354
 C         3.216514         0.461496         0.533747
 C         3.212490        -1.097627         0.427173
 C         3.270359        -1.164702        -1.128731
 C         2.569969         0.279923        -0.861495
 O         2.534574         1.369818        -1.790726
 O         1.698134        -1.360410         0.669218
 H        -0.964199        -0.454406         0.633098
 H        -0.262499         1.117907        -0.270287
 H        -0.554212        -0.395433        -1.064060
 H         1.563409         1.901002         0.649016
 H         1.471334         0.789016         2.120112
 H         4.121486         1.068502         0.548579
 H         3.715988        -1.903088         0.994797
 H         4.288273        -0.900221        -1.651862
 H         2.687862        -2.085160        -1.494332
 H         1.697463         1.533974        -2.289733
