19
Iteration:  3263
 C        -0.193463         0.094117        -0.148200
 C         1.302657         0.087618         0.167869
 C         2.039780         0.856074         1.249409
 C         3.301861         0.416231         0.362414
 C         3.138818        -1.151463         0.443425
 C         3.198590        -1.148339        -1.144296
 C         2.449034         0.280907        -0.902869
 O         2.449129         1.209313        -1.895788
 O         1.729738        -1.240150         0.707849
 H        -0.704900        -0.399398         0.617545
 H        -0.561968         1.042779        -0.421406
 H        -0.329651        -0.517116        -1.126521
 H         1.805175         2.000131         1.181284
 H         1.755634         0.560318         2.320553
 H         4.304857         0.875090         0.333682
 H         3.801294        -1.754940         1.035779
 H         4.225121        -0.914312        -1.446979
 H         2.750049        -1.997196        -1.747474
 H         1.776936         1.908878        -1.881007
