19
Iteration:   923charge 0 multiplicity 1
 C        -0.248805        -0.049358        -0.253602
 C         1.288465         0.085974         0.140359
 C         1.955276         0.922879         1.197739
 C         3.290915         0.443176         0.629507
 C         3.125207        -1.112331         0.453354
 C         3.274304        -1.149685        -1.140849
 C         2.622931         0.311258        -0.862707
 O         2.523088         1.282896        -1.850412
 O         1.623506        -1.262176         0.579002
 H        -0.911291        -0.257084         0.607737
 H        -0.726309         0.886057        -0.793651
 H        -0.101024        -0.946938        -0.902235
 H         2.066538         1.962966         0.807628
 H         1.767940         0.834036         2.300223
 H         4.266207         0.915649         0.789296
 H         3.545444        -1.953455         0.959892
 H         4.282224        -1.153381        -1.517292
 H         2.723805        -1.808989        -1.696608
 H         1.575070         1.307178        -1.985770
