19
Iteration:   483charge 0 multiplicity 1
 C        -0.187263         0.187952        -0.207419
 C         1.300663         0.027142         0.209817
 C         1.947374         0.979505         1.223993
 C         3.313322         0.306195         0.568114
 C         3.175018        -1.178784         0.369263
 C         3.108969        -1.175299        -1.202458
 C         2.502356         0.245075        -0.844186
 O         2.501986         1.312040        -1.888897
 O         1.748733        -1.233253         0.723205
 H        -0.893717         0.062387         0.622861
 H        -0.300698         1.050737        -0.749045
 H        -0.483251        -0.609516        -0.859909
 H         1.910418         2.057779         0.888004
 H         1.584668         0.700485         2.240936
 H         4.297150         0.666650         0.502153
 H         3.492339        -1.959186         1.019447
 H         4.166070        -1.303457        -1.839375
 H         2.234062        -1.832455        -1.673404
 H         2.590589         0.747380        -2.704313
