19
Iteration:  2692charge 0 multiplicity 1
 C        -0.127992        -0.008277        -0.180661
 C         1.322433        -0.037222         0.129635
 C         1.989121         0.953473         1.096597
 C         3.280196         0.407793         0.541659
 C         3.165241        -1.127252         0.493542
 C         3.273184        -1.109299        -1.147645
 C         2.496612         0.268743        -0.877852
 O         2.372264         1.341927        -1.806168
 O         1.694211        -1.319574         0.598031
 H        -0.754675        -0.013649         0.624302
 H        -0.371911         0.924374        -0.911086
 H        -0.356789        -0.788638        -0.869763
 H         2.045181         2.017453         0.852337
 H         1.720401         0.873158         2.190761
 H         4.248532         0.845077         0.601420
 H         3.630610        -1.815651         1.227031
 H         4.214628        -0.937136        -1.672647
 H         2.770869        -1.976063        -1.533363
 H         1.535088         1.869911        -1.650920
