19
Iteration:  1225
 C        -0.111356         0.009198        -0.389996
 C         1.333044         0.002288         0.134644
 C         1.901233         1.009469         1.271099
 C         3.189371         0.500108         0.574762
 C         3.177176        -1.123496         0.454830
 C         3.231585        -1.139821        -1.180220
 C         2.565717         0.244992        -0.859945
 O         2.373418         1.264300        -1.823524
 O         1.688210        -1.337223         0.648863
 H        -0.893930        -0.096265         0.542673
 H        -0.376009         0.955796        -0.747096
 H        -0.253237        -0.857922        -1.128391
 H         1.745441         2.164715         1.188002
 H         1.729645         0.686010         2.305896
 H         4.186149         1.141517         0.566728
 H         3.793193        -1.789134         1.054932
 H         4.197767        -1.137383        -1.544878
 H         2.654679        -2.030890        -1.430926
 H         3.310069         1.630372        -1.883231
