19
Iteration:  2833charge 0 multiplicity 1
 C        -0.023519         0.047618        -0.345423
 C         1.322502         0.031411         0.176224
 C         2.016235         0.914415         1.232966
 C         3.308965         0.476585         0.519654
 C         3.184697        -1.203738         0.369217
 C         3.082390        -1.050715        -1.141401
 C         2.451166         0.303321        -0.804176
 O         2.342948         1.168195        -1.862051
 O         1.746259        -1.276135         0.719324
 H        -0.771404        -0.110277         0.425161
 H        -0.351833         0.923258        -1.027733
 H        -0.141932        -0.709972        -1.039663
 H         1.992329         1.976545         1.256980
 H         1.761838         0.527177         2.238518
 H         4.230648         0.960228         0.695712
 H         3.894645        -1.795531         0.907752
 H         4.084135        -0.720832        -1.662659
 H         2.619312        -1.907979        -1.724354
 H         1.674926         1.887503        -1.675387
