19
Iteration:  4570charge 0 multiplicity 1
 C        -0.227951        -0.027982        -0.004211
 C         1.299628        -0.014134         0.137141
 C         1.971379         0.974404         1.131711
 C         3.314353         0.491245         0.538480
 C         3.108137        -1.123579         0.405223
 C         3.165201        -1.091205        -1.197547
 C         2.553609         0.249590        -0.915398
 O         2.500722         1.294186        -1.891784
 O         1.759442        -1.299906         0.666123
 H        -0.983627        -0.148795         0.832386
 H        -0.485167         0.997168        -0.437700
 H        -0.523457        -0.780659        -0.732669
 H         1.775983         1.997315         0.858352
 H         1.698062         0.843299         2.201287
 H         4.351446         0.857902         0.770300
 H         3.658313        -1.847537         0.957439
 H         4.240202        -0.830190        -1.530363
 H         2.628385        -1.878885        -1.778481
 H         1.802572         0.919542        -2.482436
