19
Iteration:  4110charge 0 multiplicity 1
 C        -0.068217         0.080336        -0.326708
 C         1.341716        -0.024945         0.206010
 C         2.024067         0.956142         1.179263
 C         3.358564         0.428700         0.524824
 C         3.209190        -1.101395         0.386605
 C         3.183150        -1.116534        -1.180960
 C         2.530219         0.243591        -0.855489
 O         2.108361         1.218294        -1.872008
 O         1.752606        -1.284816         0.822998
 H        -0.893606        -0.139269         0.469149
 H        -0.182319         1.104363        -0.663150
 H        -0.280877        -0.335873        -1.313066
 H         1.743511         2.006512         0.944177
 H         1.696287         0.666445         2.149940
 H         4.379368         0.813198         0.478520
 H         3.863576        -1.910753         0.853254
 H         4.201307        -1.165899        -1.452792
 H         2.394058        -1.818511        -1.577133
 H         2.879084         1.784036        -2.106144
