19
Iteration:  2431
 C        -0.179160        -0.043667        -0.145024
 C         1.256116        -0.048106         0.185586
 C         1.870325         0.900612         1.172855
 C         3.224448         0.464893         0.510007
 C         3.137692        -1.093292         0.461815
 C         3.233187        -1.051050        -1.091042
 C         2.464174         0.359887        -0.848958
 O         2.623198         1.287340        -1.920604
 O         1.759456        -1.350683         0.621662
 H        -0.889515        -0.338393         0.607278
 H        -0.409127         1.005770        -0.465109
 H        -0.366884        -0.624738        -0.995793
 H         1.795598         1.932452         0.904171
 H         1.700012         0.733423         2.258922
 H         4.136179         1.036225         0.492409
 H         3.687437        -1.784396         1.186143
 H         4.187195        -0.802945        -1.679247
 H         2.608705        -1.685213        -1.754741
 H         1.884795         1.202968        -2.518199
