19
Iteration:  3382charge 0 multiplicity 1
 C        -0.198238        -0.002340         0.036568
 C         1.289522         0.048873         0.074209
 C         1.883619         0.949078         1.088067
 C         3.206747         0.424978         0.526660
 C         3.108468        -1.177164         0.352612
 C         3.191857        -0.985906        -1.212461
 C         2.615707         0.295644        -0.958369
 O         2.518013         1.252544        -1.851490
 O         1.746433        -1.287987         0.767252
 H        -0.635170        -0.178556         1.086539
 H        -0.594343         0.846307        -0.491294
 H        -0.582433        -0.893348        -0.587928
 H         1.838178         2.090676         0.961703
 H         1.558094         0.596067         2.112022
 H         4.214690         0.775645         0.720359
 H         3.647458        -1.941391         0.840240
 H         4.257092        -0.995096        -1.450350
 H         2.577053        -1.673399        -1.852489
 H         2.846938         0.844123        -2.683965
