19
Iteration:  1263
 C        -0.248518         0.009870        -0.236789
 C         1.265979        -0.034736         0.049671
 C         1.930530         0.986456         1.074297
 C         3.244252         0.395751         0.620200
 C         3.138418        -1.167904         0.437583
 C         3.379384        -1.081635        -1.100945
 C         2.556423         0.248964        -0.849045
 O         2.373701         1.340033        -1.802863
 O         1.682530        -1.311805         0.693700
 H        -0.693159         0.114950         0.661006
 H        -0.396780         0.864495        -0.972009
 H        -0.584536        -0.849492        -0.760617
 H         1.875871         2.021611         0.800358
 H         1.549330         0.792642         2.095979
 H         4.195908         0.849348         0.674045
 H         3.724758        -1.894635         1.033517
 H         4.501349        -0.809991        -1.406147
 H         3.032100        -1.828298        -1.858192
 H         3.216528         1.539997        -2.262322
