19
Iteration:   954
 C        -0.136784         0.082287        -0.205257
 C         1.292047        -0.029184         0.070238
 C         1.872648         0.916138         1.074203
 C         3.221093         0.414880         0.499102
 C         3.115050        -1.116643         0.462532
 C         3.231234        -1.055690        -1.063265
 C         2.528214         0.276910        -0.869734
 O         2.579283         1.265325        -1.787919
 O         1.691097        -1.363680         0.681847
 H        -0.659042        -0.587653         0.526077
 H        -0.427650         1.155830        -0.359800
 H        -0.524004        -0.398439        -1.165531
 H         1.836125         1.952341         0.677374
 H         1.592089         0.994204         2.058891
 H         4.303271         0.916520         0.398222
 H         3.692270        -1.883298         0.930232
 H         4.327693        -0.867243        -1.202699
 H         2.887770        -1.760216        -1.798760
 H         1.697179         1.715773        -1.783910
