19
Iteration:  1732charge 0 multiplicity 1
 C        -0.225921        -0.052870        -0.215264
 C         1.305987         0.049009         0.054238
 C         1.877864         0.942022         1.171257
 C         3.240980         0.459140         0.570369
 C         3.100365        -1.133824         0.422084
 C         3.323554        -1.119637        -1.042043
 C         2.570867         0.275912        -0.876290
 O         2.408539         1.309084        -1.825663
 O         1.688841        -1.294768         0.570098
 H        -0.655678        -0.425324         0.751467
 H        -0.492016         1.051323        -0.483294
 H        -0.302175        -0.731131        -0.979641
 H         1.763626         2.043642         0.989913
 H         1.702409         0.815464         2.217705
 H         4.255823         0.842952         0.769469
 H         3.696952        -1.780188         1.089738
 H         4.485015        -1.005426        -1.230307
 H         2.944291        -2.025295        -1.606402
 H         3.237102         1.484890        -2.254207
