19
Iteration:  2889charge 0 multiplicity 1
 C        -0.241756         0.062776         0.019907
 C         1.219027        -0.027450         0.168853
 C         1.937606         0.945820         1.107948
 C         3.207680         0.467324         0.446580
 C         3.138090        -1.169706         0.373933
 C         3.330525        -1.036629        -1.123151
 C         2.476182         0.231435        -0.920350
 O         2.563781         1.208692        -1.827551
 O         1.747807        -1.320969         0.565698
 H        -0.773809        -0.229026         1.030776
 H        -0.564769         1.182433        -0.362478
 H        -0.543592        -0.710228        -0.682703
 H         1.673967         1.976544         0.851476
 H         1.560790         0.889431         2.141870
 H         4.203559         0.942835         0.208687
 H         3.743626        -1.791992         1.066987
 H         4.410338        -0.703987        -1.529731
 H         2.951758        -1.887357        -1.746708
 H         2.078779         1.970429        -1.487240
