19
Iteration:   273
 C        -0.186228         0.135576        -0.163706
 C         1.299182         0.053203         0.184333
 C         2.089349         0.985765         1.165037
 C         3.342469         0.346904         0.552987
 C         3.025885        -1.201818         0.394259
 C         3.240119        -1.181434        -1.092065
 C         2.541356         0.279016        -0.904132
 O         2.494193         1.300616        -1.904098
 O         1.585795        -1.293082         0.650606
 H        -0.817866        -0.177855         0.734295
 H        -0.460762         1.176464        -0.494560
 H        -0.474384        -0.594857        -0.886236
 H         2.029992         1.964517         0.659734
 H         1.890802         1.031887         2.294584
 H         4.376981         0.465335         0.727337
 H         3.573469        -1.842435         1.179534
 H         4.344348        -0.796602        -1.360535
 H         2.843105        -2.032264        -1.771275
 H         1.717800         1.214643        -2.475284
