19
Iteration:  2819
 C        -0.085003         0.059623        -0.431183
 C         1.298221        -0.051313         0.255726
 C         2.081986         0.964708         1.272712
 C         3.283200         0.436656         0.457806
 C         3.164793        -1.059525         0.411919
 C         3.148959        -1.040290        -1.141210
 C         2.464286         0.235815        -0.841501
 O         2.318669         1.198812        -1.815092
 O         1.768625        -1.346434         0.702632
 H        -1.097401         0.055430         0.319806
 H         0.013905         1.084450        -0.734337
 H        -0.153290        -0.671456        -1.293309
 H         1.715231         1.951619         1.013484
 H         2.078973         0.810746         2.375227
 H         4.258916         0.861969         0.263769
 H         3.655650        -1.882008         0.937342
 H         4.126786        -1.003690        -1.616741
 H         2.448014        -1.798750        -1.608000
 H         1.809366         1.932618        -1.471753
