19
Iteration:  4535
 C        -0.267047         0.054902         0.089021
 C         1.259774        -0.076249         0.082340
 C         2.008167         0.963392         1.101832
 C         3.241174         0.489771         0.391963
 C         3.093990        -1.057761         0.474008
 C         3.268055        -1.129877        -1.121185
 C         2.461714         0.169409        -0.974807
 O         2.529840         1.335077        -1.788825
 O         1.733688        -1.337042         0.603680
 H        -0.707583        -0.014750         1.103774
 H        -0.364936         0.960792        -0.466456
 H        -0.629917        -0.706992        -0.729553
 H         1.821214         2.064852         0.919829
 H         1.946284         0.628704         2.137998
 H         4.291540         0.834162         0.334710
 H         3.682762        -1.673785         1.073651
 H         4.233843        -0.687015        -1.449945
 H         3.226553        -2.111563        -1.650576
 H         2.021952         1.308428        -2.636101
