19
Iteration:  4963
 C        -0.088620         0.062057        -0.258558
 C         1.361014        -0.008841         0.207116
 C         2.087851         1.030124         1.083211
 C         3.375869         0.493918         0.570313
 C         3.082632        -1.175910         0.437597
 C         3.206519        -1.055121        -1.158986
 C         2.559644         0.251536        -0.848519
 O         2.184611         1.096517        -1.863675
 O         1.733281        -1.288247         0.667290
 H        -0.815739        -0.098083         0.593930
 H        -0.373721         1.007215        -0.799985
 H        -0.229989        -0.671772        -0.982356
 H         1.928196         2.062153         0.645157
 H         2.059675         1.089392         2.237867
 H         4.285680         1.075899         0.778042
 H         3.593765        -1.942082         1.072189
 H         4.249468        -0.902450        -1.566472
 H         2.631642        -1.865061        -1.588174
 H         1.493709         1.665152        -1.443364
