19
Iteration:  3024charge 0 multiplicity 1
 C        -0.296362         0.075343        -0.130614
 C         1.235187        -0.028980         0.158104
 C         2.028876         0.931338         1.157871
 C         3.332398         0.441549         0.517083
 C         3.148110        -1.127617         0.439533
 C         3.275642        -1.066165        -1.163376
 C         2.496313         0.248306        -0.891229
 O         2.454786         1.254609        -1.810640
 O         1.727946        -1.290474         0.629065
 H        -0.815432         0.109145         0.707665
 H        -0.491687         0.946524        -0.717864
 H        -0.571594        -0.744157        -0.934229
 H         1.949440         1.977658         0.850328
 H         1.916173         0.876236         2.231958
 H         4.373409         0.932550         0.507969
 H         3.659379        -1.912850         0.986071
 H         4.293859        -0.968537        -1.464059
 H         2.935693        -1.976859        -1.695842
 H         1.715873         1.184032        -2.418011
