19
Iteration:  3367
 C        -0.188305         0.017948        -0.060779
 C         1.285056        -0.061073         0.129848
 C         1.918179         0.949114         1.116602
 C         3.276933         0.418878         0.504055
 C         3.149093        -1.107161         0.409408
 C         3.164452        -1.133563        -1.173824
 C         2.492748         0.260840        -0.837719
 O         2.476000         1.333056        -1.866027
 O         1.754459        -1.286115         0.637440
 H        -0.555278         0.117140         1.051575
 H        -0.518601         1.028268        -0.477579
 H        -0.611026        -0.831625        -0.473306
 H         1.758866         1.895692         0.742856
 H         1.644613         0.885337         2.139842
 H         4.230703         0.997274         0.588926
 H         3.828180        -1.730418         1.045514
 H         4.130548        -0.957215        -1.643973
 H         2.579237        -1.893764        -1.690423
 H         3.174148         1.133338        -2.485824
