19
Iteration:  4052
 C        -0.224984        -0.016165         0.018343
 C         1.233395         0.068927         0.141415
 C         2.017978         0.970969         1.089960
 C         3.250334         0.381051         0.506563
 C         3.059363        -1.147466         0.412001
 C         3.296007        -1.040862        -1.123865
 C         2.588270         0.238604        -0.943936
 O         2.369157         1.282473        -1.944578
 O         1.748810        -1.288289         0.697602
 H        -0.649146        -0.097825         1.016730
 H        -0.617038         0.983012        -0.288626
 H        -0.612654        -1.057916        -0.480393
 H         1.905358         1.963793         0.737816
 H         1.658044         0.808377         2.125108
 H         4.174246         0.936595         0.651106
 H         3.688535        -1.939479         0.778965
 H         4.400189        -1.013041        -1.201671
 H         2.918284        -1.754660        -1.839040
 H         3.124977         1.340927        -2.564057
