19
Iteration:  3342
 C        -0.197882         0.077536        -0.195069
 C         1.258511        -0.021667         0.212019
 C         2.107787         1.016930         1.152044
 C         3.303291         0.441521         0.381656
 C         3.110236        -1.128147         0.444808
 C         3.244862        -1.144040        -1.085782
 C         2.520037         0.235364        -0.849505
 O         2.280128         1.280484        -1.814268
 O         1.707019        -1.351684         0.609426
 H        -0.856662         0.040404         0.583111
 H        -0.385047         0.973963        -0.757000
 H        -0.358721        -0.941536        -0.726795
 H         1.939941         2.120491         0.949554
 H         2.057541         0.710188         2.203133
 H         4.276708         0.893196         0.386336
 H         3.843297        -1.809599         1.002821
 H         4.308452        -0.992615        -1.446547
 H         2.675782        -1.920583        -1.574874
 H         3.058917         1.866353        -1.872313
