19
Iteration:    71
 C        -0.031795         0.096462        -0.189742
 C         1.328169         0.117373         0.129992
 C         2.063929         1.011585         1.105481
 C         3.246117         0.345894         0.502934
 C         2.972618        -1.244988         0.420199
 C         3.249822        -1.124244        -1.027444
 C         2.535901         0.201160        -0.852781
 O         2.409596         1.232738        -1.888235
 O         1.610983        -1.263177         0.621652
 H        -0.585812        -0.216789         0.664963
 H        -0.486521         0.998603        -0.477176
 H        -0.108760        -0.647075        -0.955883
 H         2.098515         2.046144         0.733605
 H         1.884839         1.075744         2.189968
 H         4.229155         0.843970         0.641658
 H         3.458642        -2.055602         1.010958
 H         4.413553        -0.877210        -1.177847
 H         2.880265        -2.004316        -1.738156
 H         2.032136         2.014617        -1.503837
