19
Iteration:  4488charge 0 multiplicity 1
 C        -0.091218        -0.009017        -0.261625
 C         1.333464         0.025199         0.285385
 C         2.088664         0.950337         1.184572
 C         3.269360         0.444284         0.473671
 C         3.162114        -1.167345         0.423848
 C         3.125162        -1.044156        -1.127613
 C         2.478308         0.278239        -0.831968
 O         2.353270         1.282116        -1.879197
 O         1.712614        -1.292121         0.667370
 H        -0.648171        -0.251259         0.628842
 H        -0.356784         0.941366        -0.758935
 H        -0.200070        -0.798478        -1.119562
 H         1.992521         1.949625         0.663371
 H         2.073849         0.993300         2.306067
 H         4.225590         0.956206         0.651122
 H         3.764280        -1.889071         1.124941
 H         4.124307        -1.057970        -1.599205
 H         2.482159        -1.695242        -1.749754
 H         1.626161         0.819887        -2.314533
