19
Iteration:   276
 C        -0.186413         0.155730        -0.161900
 C         1.281697         0.044899         0.172641
 C         2.072557         0.973890         1.160720
 C         3.332690         0.367633         0.545612
 C         3.041040        -1.232508         0.390284
 C         3.272544        -1.195209        -1.102546
 C         2.523687         0.241797        -0.919073
 O         2.490975         1.311563        -1.876414
 O         1.600086        -1.274442         0.668932
 H        -0.814883        -0.147822         0.786415
 H        -0.397425         1.206665        -0.465569
 H        -0.478136        -0.594678        -0.960522
 H         2.095067         1.987603         0.755250
 H         1.833775         1.092334         2.239166
 H         4.360058         0.616610         0.598888
 H         3.498929        -1.921103         1.147343
 H         4.218763        -0.854925        -1.365535
 H         2.911009        -1.965986        -1.712598
 H         1.791300         1.247125        -2.538160
