19
Iteration:   200charge 0 multiplicity 1
 C        -0.130587         0.207645        -0.299495
 C         1.253566        -0.083667         0.213064
 C         2.075250         1.035328         1.104809
 C         3.360663         0.468767         0.441157
 C         3.094844        -1.242615         0.453506
 C         3.141825        -1.152572        -1.087369
 C         2.550704         0.238015        -0.849616
 O         2.397731         1.240738        -1.856926
 O         1.638151        -1.351377         0.702380
 H        -0.785505        -0.021651         0.623588
 H        -0.218443         1.265214        -0.596734
 H        -0.501532        -0.477087        -1.080294
 H         1.620567         1.887370         0.644371
 H         2.074916         1.028375         2.207938
 H         4.393706         0.809126         0.523137
 H         3.600216        -2.042364         1.092159
 H         4.109960        -0.968019        -1.301937
 H         2.784330        -1.974514        -1.616911
 H         2.715288         2.138439        -1.543928
