19
Iteration:  2216charge 0 multiplicity 1
 C        -0.194196        -0.064677        -0.174342
 C         1.285080         0.035066         0.181078
 C         1.966483         0.969524         1.211410
 C         3.212661         0.397683         0.583763
 C         3.085436        -1.153329         0.376598
 C         3.291729        -0.998481        -1.151850
 C         2.584964         0.334345        -0.888347
 O         2.484966         1.264188        -1.863558
 O         1.662563        -1.264682         0.606113
 H        -0.754246        -0.271529         0.792411
 H        -0.672923         0.703629        -0.613460
 H        -0.352787        -1.008205        -0.760867
 H         1.950270         1.965448         0.771227
 H         1.619087         0.789880         2.292063
 H         4.128713         0.714609         1.013349
 H         3.664815        -1.910509         1.038625
 H         4.390564        -0.865987        -1.288305
 H         2.929943        -1.807814        -1.812794
 H         2.477562         1.000352        -2.780944
