19
Iteration:  2190charge 0 multiplicity 1
 C        -0.076330         0.011093        -0.351039
 C         1.326293        -0.047539         0.148086
 C         1.981060         0.908946         1.229409
 C         3.291629         0.506235         0.554546
 C         3.178889        -1.183740         0.436520
 C         3.142004        -1.025836        -1.080406
 C         2.521863         0.350197        -0.784252
 O         2.357317         1.288869        -1.870181
 O         1.665958        -1.329660         0.646137
 H        -0.815042         0.080381         0.583482
 H        -0.417372         0.917215        -1.016400
 H        -0.347646        -0.821901        -0.946063
 H         1.861156         2.006100         1.048778
 H         1.756451         0.501051         2.203721
 H         4.290577         0.995239         0.775868
 H         3.712183        -1.868464         1.030841
 H         4.233462        -0.956362        -1.499786
 H         2.616525        -1.895261        -1.613230
 H         2.875220         1.000765        -2.619507
