19
Iteration:  3640
 C        -0.042216         0.118223        -0.345115
 C         1.335692        -0.079313         0.188963
 C         2.069450         0.920240         1.216141
 C         3.286216         0.492253         0.393188
 C         3.107490        -1.123418         0.470148
 C         3.212671        -1.137552        -1.132802
 C         2.546679         0.238541        -0.879101
 O         2.207270         1.214355        -1.834922
 O         1.772768        -1.278034         0.754836
 H        -0.948708        -0.005482         0.349123
 H        -0.142700         1.199459        -0.721434
 H        -0.351284        -0.395725        -1.264725
 H         1.819278         1.937951         1.067857
 H         2.127608         0.729876         2.302907
 H         4.336951         0.944096         0.456496
 H         3.760756        -1.589658         1.199793
 H         4.207351        -1.005447        -1.449746
 H         2.578620        -1.801240        -1.727017
 H         1.269707         1.385245        -1.673618
