19
Iteration:  1949
 C        -0.139509        -0.012596        -0.335919
 C         1.316962        -0.031367         0.094836
 C         2.010756         0.961594         1.145822
 C         3.256924         0.444017         0.563608
 C         3.102657        -1.148973         0.478605
 C         3.217224        -1.060277        -1.023900
 C         2.545056         0.278992        -0.883418
 O         2.312420         1.324432        -1.783862
 O         1.720286        -1.325730         0.610173
 H        -0.654745        -0.144610         0.674346
 H        -0.450360         1.023222        -0.770426
 H        -0.279456        -0.732302        -0.984224
 H         1.703475         2.066261         1.054989
 H         1.822186         0.680294         2.201921
 H         4.330605         0.719761         0.648251
 H         3.746140        -1.790927         1.142854
 H         4.303434        -0.936111        -1.224015
 H         2.800890        -1.835559        -1.696628
 H         2.953032         1.330074        -2.549416
