19
Iteration:   413charge 0 multiplicity 1
 C        -0.165894         0.261289        -0.210100
 C         1.278951         0.007991         0.075674
 C         1.944330         0.951951         1.038188
 C         3.300366         0.358601         0.513702
 C         3.145423        -1.175762         0.445908
 C         3.164999        -1.145786        -1.183563
 C         2.520053         0.207997        -0.845832
 O         2.503796         1.242046        -1.711575
 O         1.744432        -1.314031         0.733554
 H        -0.751801        -0.004702         0.638933
 H        -0.234802         1.392036        -0.350372
 H        -0.680171        -0.196054        -1.054792
 H         1.755955         1.953824         0.637309
 H         1.624717         0.826500         2.097331
 H         4.357472         0.775040         0.343659
 H         3.759158        -1.869570         1.105404
 H         4.189243        -0.985435        -1.643785
 H         2.530916        -1.971834        -1.573612
 H         1.755355         1.166545        -2.357696
