19
Iteration:  1414charge 0 multiplicity 1
 C        -0.228267         0.035137        -0.278951
 C         1.267497        -0.127639         0.183866
 C         1.878985         0.931740         1.171129
 C         3.243825         0.459898         0.573534
 C         3.167883        -1.103630         0.441939
 C         3.248797        -1.071791        -1.119876
 C         2.544765         0.275476        -0.879862
 O         2.487445         1.331441        -1.888504
 O         1.702913        -1.354289         0.686307
 H        -0.971750         0.040679         0.590209
 H        -0.226842         1.053654        -0.818474
 H        -0.373668        -0.748798        -0.949561
 H         1.545116         1.890284         0.817971
 H         1.933190         0.839690         2.286494
 H         4.161792         0.997936         0.656573
 H         3.689668        -1.794514         1.120501
 H         4.132579        -0.830914        -1.536257
 H         2.730191        -1.834629        -1.619914
 H         3.375845         1.492473        -2.218734
