19
Iteration:  1547charge 0 multiplicity 1
 C        -0.055633        -0.040038        -0.338220
 C         1.299986        -0.041583         0.175564
 C         1.979510         0.943368         1.227796
 C         3.253379         0.441997         0.546695
 C         3.118979        -1.113876         0.439215
 C         3.154549        -0.968139        -1.053824
 C         2.519492         0.349180        -0.812364
 O         2.428957         1.185780        -1.898907
 O         1.667141        -1.307319         0.645051
 H        -0.809244        -0.399890         0.336123
 H        -0.575905         0.916984        -0.821549
 H        -0.171110        -0.721125        -1.195103
 H         1.694541         1.965459         0.881138
 H         1.671068         0.786781         2.273426
 H         4.248840         0.777096         0.768553
 H         3.668247        -1.954044         0.890510
 H         4.138034        -0.785185        -1.397516
 H         2.743535        -1.761362        -1.664991
 H         3.135309         1.801479        -2.030968
