19
Iteration:  1276
 C        -0.169970         0.005534        -0.238479
 C         1.300556         0.094913         0.060295
 C         1.870708         1.010473         1.177001
 C         3.247655         0.428020         0.485426
 C         3.063964        -1.173923         0.485881
 C         3.407073        -1.132678        -1.099873
 C         2.624297         0.216776        -0.942895
 O         2.328398         1.292228        -1.727005
 O         1.706770        -1.291404         0.578260
 H        -0.774862         0.077254         0.646662
 H        -0.690204         0.860597        -0.818570
 H        -0.429136        -1.044995        -0.585098
 H         1.653624         2.032122         1.080497
 H         1.717062         0.673325         2.202510
 H         4.175771         0.654672         0.885653
 H         3.543590        -1.744531         1.268335
 H         4.529096        -0.813078        -1.246513
 H         3.003879        -1.974567        -1.694557
 H         3.099642         1.414391        -2.299295
