19
Iteration:  4800
 C        -0.024385         0.068546        -0.281551
 C         1.315200         0.008156         0.243154
 C         2.021422         0.961212         1.216829
 C         3.323043         0.432406         0.418372
 C         3.134690        -1.088721         0.372115
 C         3.166159        -1.155354        -1.087683
 C         2.489910         0.353550        -0.856008
 O         2.271868         1.185726        -1.919222
 O         1.784202        -1.316147         0.760591
 H        -0.896909        -0.031635         0.470444
 H        -0.185268         1.115639        -0.760501
 H        -0.119516        -0.621720        -1.083753
 H         1.975278         2.041605         0.968221
 H         1.736093         0.706643         2.279067
 H         4.277510         0.887162         0.618453
 H         3.843164        -1.728358         0.976104
 H         4.183279        -1.079895        -1.525686
 H         2.415246        -1.793098        -1.467316
 H         1.293573         1.164951        -2.044706
