19
Iteration:  4895charge 0 multiplicity 1
 C        -0.171237        -0.048339        -0.061526
 C         1.257182        -0.021646         0.241713
 C         1.950094         0.964904         1.108602
 C         3.286426         0.561462         0.545562
 C         3.195840        -1.101021         0.426457
 C         3.085630        -1.113544        -1.223992
 C         2.428743         0.237849        -0.864057
 O         2.508456         1.172575        -2.018614
 O         1.794417        -1.266572         0.682709
 H        -0.719072        -0.184757         0.869193
 H        -0.386053         0.999978        -0.388788
 H        -0.404888        -0.811045        -0.807043
 H         1.803770         2.044533         0.877011
 H         1.685728         0.810838         2.200777
 H         4.313893         1.075794         0.701652
 H         3.659501        -1.890673         1.032337
 H         4.015895        -0.819206        -1.808189
 H         2.543155        -2.000531        -1.449048
 H         2.780251         2.051333        -1.741657
