19
Iteration:  1416charge 0 multiplicity 1
 C        -0.238184         0.046529        -0.263406
 C         1.258476        -0.126534         0.181584
 C         1.872286         0.928015         1.186827
 C         3.246075         0.480767         0.578009
 C         3.165959        -1.115147         0.446111
 C         3.229076        -1.079866        -1.111907
 C         2.545406         0.266338        -0.895248
 O         2.495950         1.333860        -1.891435
 O         1.722067        -1.355585         0.670355
 H        -0.944727         0.025890         0.490784
 H        -0.222930         1.075692        -0.858354
 H        -0.398015        -0.806658        -0.947394
 H         1.560839         1.917522         0.869652
 H         1.942870         0.829677         2.295782
 H         4.125586         1.043485         0.651156
 H         3.723508        -1.782381         1.110758
 H         4.215864        -0.843853        -1.522276
 H         2.721809        -1.896864        -1.586041
 H         3.361227         1.514648        -2.235293
