19
Iteration:   724
 C        -0.122602         0.126064        -0.225353
 C         1.342959         0.104200         0.148974
 C         1.999858         1.025711         1.150526
 C         3.302151         0.365195         0.543544
 C         3.072442        -1.210466         0.370728
 C         3.255742        -1.118363        -1.130924
 C         2.547053         0.237231        -0.835569
 O         2.281788         1.193519        -1.798619
 O         1.673212        -1.278528         0.622785
 H        -0.833143         0.037818         0.697097
 H        -0.364625         0.932331        -0.890767
 H        -0.283374        -0.827935        -0.836351
 H         2.032700         2.197359         1.003907
 H         1.600143         0.788929         2.175068
 H         4.363320         0.798683         0.694853
 H         3.632335        -1.934352         0.992749
 H         4.384757        -1.061190        -1.293911
 H         2.720038        -1.839812        -1.805636
 H         3.213452         1.447096        -1.994313
