19
Iteration:  1152
 C        -0.149632         0.109960        -0.365107
 C         1.321611        -0.033091         0.040699
 C         1.914589         0.916284         1.092323
 C         3.299447         0.426785         0.587348
 C         3.189913        -1.100358         0.538927
 C         3.234043        -1.048522        -1.032700
 C         2.510113         0.227879        -0.869785
 O         2.352242         1.268018        -1.763247
 O         1.713234        -1.360931         0.668076
 H        -0.686959        -0.269669         0.479299
 H        -0.547115         1.174751        -0.418605
 H        -0.444913        -0.425398        -1.242737
 H         1.811583         2.005975         0.908836
 H         1.510359         0.744847         2.085132
 H         4.287395         0.980571         0.655178
 H         3.793512        -1.872119         1.046526
 H         4.259239        -0.751675        -1.530085
 H         2.646548        -1.762190        -1.704956
 H         3.006084         1.204345        -2.456125
