19
Iteration:  2429charge 0 multiplicity 1
 C        -0.185245        -0.051496        -0.130257
 C         1.269644        -0.048813         0.179553
 C         1.862690         0.914611         1.192272
 C         3.217053         0.448627         0.518418
 C         3.149222        -1.090361         0.459974
 C         3.232395        -1.047294        -1.108749
 C         2.461159         0.350204        -0.847446
 O         2.632282         1.290831        -1.933593
 O         1.745798        -1.343227         0.615006
 H        -0.762128        -0.356645         0.590904
 H        -0.426370         1.022093        -0.494659
 H        -0.381188        -0.666540        -0.975645
 H         1.807646         1.974471         0.887609
 H         1.681751         0.719898         2.279852
 H         4.153522         1.055851         0.529000
 H         3.655560        -1.773454         1.202342
 H         4.144098        -0.792818        -1.656777
 H         2.653347        -1.695881        -1.717848
 H         1.879111         1.178866        -2.517868
