19
Iteration:  4543
 C        -0.253643         0.027892         0.055178
 C         1.268215        -0.055875         0.172425
 C         2.018777         0.997221         1.102461
 C         3.248618         0.477899         0.360298
 C         3.155790        -1.050173         0.421750
 C         3.326260        -1.121593        -1.097017
 C         2.380521         0.170513        -1.012032
 O         2.562106         1.345644        -1.800391
 O         1.689684        -1.374088         0.588138
 H        -0.790506         0.067041         0.970927
 H        -0.476301         1.028689        -0.300089
 H        -0.790938        -0.766421        -0.610033
 H         1.700937         2.090567         1.065302
 H         1.848544         0.727812         2.166964
 H         4.312791         0.686837         0.446284
 H         3.804158        -1.643697         1.179357
 H         4.311751        -0.773565        -1.212550
 H         2.862256        -1.971094        -1.579535
 H         1.987417         1.192104        -2.581052
