19
Iteration:  3326charge 0 multiplicity 1
 C        -0.061787         0.052043        -0.287173
 C         1.380636         0.027897         0.131208
 C         2.088100         0.927767         1.194142
 C         3.323220         0.403089         0.485916
 C         3.131114        -1.185846         0.416860
 C         3.216145        -1.096457        -1.171366
 C         2.476463         0.227865        -0.925614
 O         2.168802         1.209451        -1.806162
 O         1.686079        -1.217620         0.757597
 H        -0.779231         0.148660         0.662561
 H        -0.288411         1.042803        -0.787195
 H        -0.322472        -0.694176        -1.001275
 H         1.893395         2.002322         0.944064
 H         1.890880         0.847672         2.305627
 H         4.412842         0.666719         0.607231
 H         3.577726        -1.888188         1.077643
 H         4.242385        -0.897014        -1.445769
 H         2.937295        -1.925118        -1.879176
 H         2.628097         2.079566        -1.640676
