19
Iteration:  4511
 C        -0.227293         0.038280        -0.032980
 C         1.332469        -0.010425         0.119701
 C         1.937071         1.017964         1.113485
 C         3.330940         0.458380         0.514104
 C         3.170358        -1.148861         0.362836
 C         3.245603        -1.082686        -1.142801
 C         2.525977         0.227101        -0.885648
 O         2.417353         1.308993        -1.850360
 O         1.711117        -1.317701         0.685152
 H        -0.630976        -0.097041         0.959153
 H        -0.438355         0.967337        -0.521453
 H        -0.568720        -0.747836        -0.855666
 H         1.843644         2.105189         0.768408
 H         1.518899         0.765071         2.111733
 H         4.395849         0.622962         0.723300
 H         3.889287        -1.897896         0.850267
 H         4.252095        -1.176792        -1.519188
 H         2.615762        -1.807883        -1.717873
 H         1.817401         0.949994        -2.543628
