19
Iteration:  2460charge 0 multiplicity 1
 C        -0.131585         0.053937        -0.347994
 C         1.315662        -0.080381         0.102955
 C         1.933020         0.977699         1.158781
 C         3.250714         0.444907         0.471429
 C         3.178829        -1.111499         0.466327
 C         3.333083        -1.192779        -1.157239
 C         2.518169         0.251637        -0.863382
 O         2.338606         1.372522        -1.717300
 O         1.719067        -1.330455         0.742970
 H        -0.805343        -0.298947         0.443523
 H        -0.427490         1.178570        -0.468174
 H        -0.387226        -0.522676        -1.284381
 H         1.849498         2.094062         1.001812
 H         1.801163         0.775188         2.248403
 H         4.252511         0.991347         0.461027
 H         3.725441        -1.733628         1.195084
 H         4.263609        -0.952515        -1.577303
 H         2.827641        -1.895040        -1.737837
 H         1.732611         1.102450        -2.461421
