19
Iteration:  1033
 C        -0.159446         0.074695        -0.415556
 C         1.244191         0.058375         0.182202
 C         1.995040         0.891347         1.190673
 C         3.268460         0.433652         0.625953
 C         3.183765        -1.180251         0.417820
 C         3.277965        -1.062941        -1.109768
 C         2.517763         0.290298        -0.776620
 O         2.385803         1.197478        -1.901875
 O         1.716548        -1.329014         0.670495
 H        -0.870180        -0.019600         0.396479
 H        -0.674096         1.034124        -0.921079
 H        -0.215429        -0.704326        -1.188477
 H         2.045990         1.935617         0.958856
 H         1.690668         0.900617         2.224524
 H         4.233846         0.892473         0.815734
 H         3.735869        -1.895629         1.045551
 H         4.265700        -0.896815        -1.504493
 H         2.708908        -1.790096        -1.572108
 H         2.037919         2.111804        -1.736130
