19
Iteration:  1697charge 0 multiplicity 1
 C        -0.103383         0.087924        -0.377075
 C         1.284686        -0.078839         0.023372
 C         1.893957         0.977745         1.068461
 C         3.269331         0.406230         0.558218
 C         3.187615        -1.134369         0.434622
 C         3.264480        -1.061420        -1.072089
 C         2.474347         0.265605        -0.827102
 O         2.293125         1.307750        -1.712439
 O         1.759045        -1.398911         0.735723
 H        -1.015849        -0.260216         0.313370
 H        -0.389957         1.220542        -0.561903
 H        -0.401081        -0.268819        -1.294912
 H         1.982949         1.901939         0.545760
 H         1.709656         1.109522         2.158690
 H         4.229721         0.820413         0.671246
 H         3.858094        -1.743615         1.076448
 H         4.370375        -0.912478        -1.238695
 H         2.914251        -1.967930        -1.571605
 H         3.173269         1.531957        -1.972039
