19
Iteration:  4682charge 0 multiplicity 1
 C        -0.196006         0.004276        -0.057736
 C         1.313957         0.002325         0.194369
 C         1.995634         0.978798         1.149752
 C         3.344380         0.452409         0.434394
 C         3.125595        -1.116143         0.507953
 C         3.203638        -1.028854        -1.115299
 C         2.465889         0.249936        -0.910607
 O         2.464687         1.243131        -1.928365
 O         1.715361        -1.291121         0.589871
 H        -0.731093        -0.101676         0.920354
 H        -0.621706         0.855712        -0.654808
 H        -0.274737        -0.867819        -0.661716
 H         1.670939         1.986776         0.995230
 H         2.109052         0.763467         2.180025
 H         4.379497         0.733569         0.645034
 H         3.481070        -1.986491         1.167645
 H         4.247139        -0.714982        -1.345137
 H         2.673646        -1.836063        -1.659376
 H         1.681603         0.961808        -2.418184
