19
Iteration:  3445charge 0 multiplicity 1
 C        -0.142964         0.111411        -0.268850
 C         1.322123        -0.036513         0.093835
 C         1.921823         0.943715         1.106281
 C         3.319273         0.396994         0.504501
 C         3.185315        -1.170750         0.388451
 C         3.187885        -1.078907        -1.128130
 C         2.593283         0.224064        -0.895401
 O         2.313538         1.275844        -1.806583
 O         1.806721        -1.264707         0.819970
 H        -0.893909        -0.244663         0.535964
 H        -0.306289         1.201603        -0.421654
 H        -0.401662        -0.347883        -1.169428
 H         1.778355         1.944092         0.886320
 H         1.648295         0.741823         2.114541
 H         4.274797         0.984121         0.545967
 H         3.757378        -1.973145         0.843361
 H         4.202187        -1.161336        -1.457655
 H         2.548954        -1.864001        -1.579704
 H         1.363760         1.395149        -1.922277
