19
Iteration:  3203
 C        -0.251514         0.019206         0.070854
 C         1.264646         0.037543         0.087721
 C         2.006595         0.991532         1.144980
 C         3.275841         0.393327         0.436111
 C         3.146567        -1.127024         0.415632
 C         3.249611        -1.138924        -1.147424
 C         2.461267         0.257960        -0.898916
 O         2.579046         1.231086        -1.884329
 O         1.675570        -1.288946         0.579528
 H        -0.820579         0.034288         1.111687
 H        -0.551938         1.063275        -0.282131
 H        -0.655299        -0.747266        -0.527068
 H         1.901706         2.032514         0.847387
 H         1.716618         0.777091         2.224853
 H         4.145463         1.025555         0.435216
 H         3.821082        -1.840430         1.007875
 H         4.324955        -1.003483        -1.433393
 H         2.903367        -1.987625        -1.705515
 H         1.838885         1.897433        -1.926128
