19
Iteration:  4609charge 0 multiplicity 1
 C        -0.136960        -0.038055        -0.321430
 C         1.306886         0.018626         0.304824
 C         2.114181         1.031651         1.179698
 C         3.376861         0.473608         0.438416
 C         3.116296        -1.146540         0.433724
 C         3.148577        -1.190514        -1.139499
 C         2.474194         0.261362        -0.883240
 O         2.299844         1.298788        -1.793058
 O         1.747302        -1.267817         0.683359
 H        -0.910177        -0.324121         0.349920
 H        -0.280451         0.941939        -0.685063
 H         0.012884        -0.702532        -1.262795
 H         1.760788         2.117149         1.089603
 H         1.947932         0.755785         2.256025
 H         4.383105         0.846233         0.557826
 H         3.735676        -1.748701         1.129291
 H         4.152735        -1.028450        -1.433428
 H         2.559454        -1.935420        -1.715677
 H         1.612042         1.199236        -2.480363
