19
Iteration:  4765charge 0 multiplicity 1
 C        -0.155417        -0.027436        -0.230888
 C         1.293442         0.056104         0.161767
 C         2.103009         0.993871         1.106784
 C         3.358739         0.437544         0.376085
 C         3.103180        -1.142025         0.364370
 C         3.220199        -1.109570        -1.085886
 C         2.506953         0.253706        -0.842487
 O         2.277226         1.239827        -1.738044
 O         1.715457        -1.231224         0.741503
 H        -0.855558        -0.325082         0.565777
 H        -0.390730         1.004475        -0.631750
 H        -0.250047        -0.776278        -1.001553
 H         2.098478         2.098870         0.847236
 H         1.930138         0.901717         2.241972
 H         4.411378         0.862285         0.476182
 H         3.683715        -1.727612         1.084837
 H         4.269738        -1.145151        -1.472512
 H         2.750755        -1.901478        -1.634486
 H         1.832309         0.864104        -2.527239
