19
Iteration:  2075
 C        -0.263160         0.018965        -0.139864
 C         1.235615        -0.089513         0.165632
 C         1.922770         0.950023         1.236860
 C         3.156342         0.504087         0.526270
 C         3.176677        -1.096463         0.402812
 C         3.223843        -1.065075        -1.149144
 C         2.559080         0.348904        -0.887227
 O         2.651130         1.354467        -1.937685
 O         1.690454        -1.391617         0.687217
 H        -0.722696        -0.414811         0.748692
 H        -0.564124         0.974723        -0.454933
 H        -0.394439        -0.835228        -1.025796
 H         1.639571         1.917829         0.937267
 H         1.847829         0.656530         2.294629
 H         4.090087         1.037108         0.572488
 H         3.656229        -1.912989         1.036002
 H         4.209956        -1.088730        -1.495974
 H         2.677319        -1.883455        -1.537330
 H         2.494319         0.835431        -2.737408
