19
Iteration:   861
 C        -0.154379         0.140337        -0.320155
 C         1.278187        -0.071960         0.068119
 C         1.916715         0.983875         1.069082
 C         3.270881         0.465859         0.602489
 C         3.156917        -1.166618         0.497824
 C         3.205927        -1.088555        -1.158365
 C         2.614945         0.207405        -0.785448
 O         2.352206         1.328011        -1.745964
 O         1.766086        -1.385430         0.689690
 H        -0.778511         0.207083         0.526120
 H        -0.042837         1.077228        -0.859005
 H        -0.635571        -0.493843        -1.008445
 H         1.943461         2.005723         0.708362
 H         1.603886         0.995017         2.170364
 H         4.196921         0.918825         0.817102
 H         3.760865        -1.954952         0.980327
 H         4.204615        -0.991177        -1.671023
 H         2.443037        -1.919813        -1.624146
 H         2.469591         0.962665        -2.618273
