19
Iteration:  2826charge 0 multiplicity 1
 C        -0.056004         0.043969        -0.394345
 C         1.346993         0.002872         0.203038
 C         2.050363         0.937559         1.262550
 C         3.290157         0.468627         0.502962
 C         3.152692        -1.150660         0.358351
 C         3.115063        -1.015112        -1.134615
 C         2.421147         0.239587        -0.818257
 O         2.340529         1.170957        -1.829333
 O         1.752154        -1.308265         0.712966
 H        -0.884519         0.001239         0.277950
 H        -0.093215         1.063272        -0.808291
 H        -0.196233        -0.768588        -1.199575
 H         1.905968         2.074839         1.105005
 H         1.930758         0.577314         2.277878
 H         4.324541         0.986719         0.417334
 H         3.905734        -1.762552         0.934175
 H         4.041177        -0.846372        -1.631488
 H         2.537397        -1.822702        -1.508178
 H         1.728324         1.898453        -1.562657
