19
Iteration:  2361
 C        -0.161075         0.082911        -0.248034
 C         1.269295        -0.058348         0.151631
 C         1.876559         0.982404         1.078297
 C         3.177711         0.490557         0.480878
 C         3.163765        -1.190380         0.417322
 C         3.260282        -1.099752        -1.159928
 C         2.510072         0.217296        -0.850040
 O         2.477131         1.346735        -1.674951
 O         1.813011        -1.364727         0.686501
 H        -0.822178         0.062302         0.459306
 H        -0.244415         1.066098        -0.762239
 H        -0.473881        -0.754189        -0.976606
 H         1.665592         2.028458         0.645474
 H         1.563058         0.858310         2.131673
 H         4.167726         1.055148         0.489781
 H         3.828183        -1.764889         1.024467
 H         4.246461        -0.895271        -1.403623
 H         2.902217        -1.979926        -1.638914
 H         1.899714         1.048895        -2.392147
