19
Iteration:  1411
 C        -0.207077         0.030082        -0.287425
 C         1.271275        -0.115434         0.185222
 C         1.895533         0.930421         1.153032
 C         3.231425         0.436530         0.558741
 C         3.168605        -1.094645         0.440565
 C         3.260009        -1.056430        -1.116461
 C         2.543504         0.289121        -0.859515
 O         2.472269         1.323459        -1.879542
 O         1.683758        -1.353926         0.702347
 H        -0.942601         0.049524         0.639243
 H        -0.254650         0.963751        -0.741996
 H        -0.398993        -0.757989        -1.031140
 H         1.547864         1.909491         0.757770
 H         1.854161         0.845243         2.243179
 H         4.249843         0.945205         0.677752
 H         3.665063        -1.804006         1.110903
 H         4.231488        -0.800060        -1.613127
 H         2.701192        -1.826342        -1.708048
 H         3.413586         1.458224        -2.192607
