19
Iteration:  3389
 C        -0.246429        -0.076475        -0.005850
 C         1.279071         0.073520         0.099125
 C         1.937127         0.960902         1.142671
 C         3.279140         0.438083         0.513687
 C         3.095875        -1.211491         0.340155
 C         3.218600        -1.025323        -1.186954
 C         2.618883         0.280840        -0.908064
 O         2.518317         1.307812        -1.917764
 O         1.675467        -1.293062         0.750149
 H        -0.723055        -0.120134         1.076974
 H        -0.633473         0.973006        -0.323778
 H        -0.572544        -0.849715        -0.565474
 H         1.689163         1.921887         0.887176
 H         1.840896         0.754130         2.170391
 H         4.250115         0.957804         0.819229
 H         3.778819        -1.868410         0.948551
 H         4.264889        -0.830693        -1.443948
 H         2.706800        -1.714750        -1.857343
 H         2.639694         0.798957        -2.775939
