19
Iteration:  3949charge 0 multiplicity 1
 C        -0.077072         0.135682        -0.262326
 C         1.342320        -0.015248         0.141724
 C         2.168296         1.003895         1.177466
 C         3.363918         0.462768         0.570450
 C         3.194778        -1.159562         0.522310
 C         3.189408        -1.099026        -1.126190
 C         2.506953         0.229854        -0.874072
 O         2.029373         1.166193        -1.837588
 O         1.701753        -1.329564         0.576023
 H        -0.758719        -0.158930         0.602294
 H        -0.211140         1.129759        -0.698648
 H        -0.079910        -0.556628        -1.039799
 H         2.085387         2.046789         0.678103
 H         2.037096         1.036514         2.276546
 H         4.292875         1.025329         0.592969
 H         3.604941        -1.890904         1.253650
 H         4.216726        -0.946252        -1.413692
 H         2.563262        -1.895489        -1.539848
 H         2.801188         1.649522        -2.126570
