19
Iteration:  4178
 C        -0.191243         0.013631        -0.117426
 C         1.280438        -0.088074         0.185374
 C         1.944308         0.946334         1.072572
 C         3.364461         0.464398         0.475434
 C         3.138799        -1.149751         0.466728
 C         3.202522        -1.079454        -1.182597
 C         2.555048         0.291532        -0.943692
 O         2.334025         1.371757        -1.893772
 O         1.746695        -1.357291         0.792595
 H        -0.721462        -0.039121         0.886701
 H        -0.580102         0.935498        -0.692346
 H        -0.568102        -0.771732        -0.700366
 H         1.773941         2.060490         0.916564
 H         1.653477         0.803897         2.136793
 H         4.362488         1.016470         0.466269
 H         3.786640        -1.829836         1.035088
 H         4.207344        -1.154140        -1.680740
 H         2.609987        -1.894491        -1.656401
 H         3.176389         1.393355        -2.373001
