19
Iteration:  4269
 C        -0.086690         0.076308        -0.294579
 C         1.329373        -0.052173         0.255072
 C         1.966983         0.984392         1.146997
 C         3.316796         0.424076         0.473441
 C         3.207387        -1.155373         0.337824
 C         3.103408        -1.029883        -1.167911
 C         2.453086         0.243613        -0.821900
 O         2.349236         1.192035        -1.872616
 O         1.802128        -1.282794         0.795978
 H        -0.651740        -0.216389         0.499052
 H        -0.265210         1.100896        -0.541877
 H        -0.153320        -0.657654        -1.146637
 H         1.924821         2.043766         0.887405
 H         1.859457         0.959231         2.299583
 H         4.176571         1.003199         0.661125
 H         3.708429        -1.884434         0.956938
 H         4.123786        -1.133641        -1.602233
 H         2.466741        -1.689046        -1.780931
 H         1.437250         1.564367        -1.956287
