19
Iteration:   183charge 0 multiplicity 1
 C        -0.078636         0.146718        -0.201431
 C         1.363107         0.106635         0.118825
 C         2.034469         1.044129         1.104831
 C         3.250433         0.349080         0.522988
 C         3.039544        -1.211009         0.423508
 C         3.238208        -1.156666        -1.120085
 C         2.556384         0.182497        -0.861661
 O         2.294996         1.190779        -1.783669
 O         1.645957        -1.275964         0.642410
 H        -0.736327        -0.005292         0.616750
 H        -0.215851         1.137898        -0.646492
 H        -0.172089        -0.601031        -1.003841
 H         2.081734         2.148562         0.835855
 H         1.637633         1.038606         2.125884
 H         4.309100         0.760876         0.667475
 H         3.637175        -1.819906         1.040595
 H         4.398521        -1.120426        -1.458110
 H         2.553205        -1.916928        -1.705150
 H         3.125102         1.731891        -1.862572
