19
Iteration:  4830charge 0 multiplicity 1
 C        -0.153283         0.068848        -0.163381
 C         1.324287        -0.011934         0.145222
 C         2.024043         1.038337         1.115633
 C         3.285178         0.455143         0.446190
 C         3.153096        -1.117916         0.455822
 C         3.278670        -1.149181        -1.128986
 C         2.444745         0.293673        -0.842729
 O         2.337855         1.167171        -1.894573
 O         1.781437        -1.349226         0.700109
 H        -0.747656        -0.025219         0.743599
 H        -0.369376         1.106400        -0.420357
 H        -0.586247        -0.691507        -0.780420
 H         1.987755         2.157469         0.903362
 H         1.607985         0.849194         2.180662
 H         4.316978         0.918140         0.575940
 H         3.714281        -1.802604         1.077288
 H         4.187216        -0.845110        -1.747605
 H         2.706854        -1.863925        -1.691280
 H         1.526930         1.711715        -1.872400
