19
Iteration:   199
 C        -0.119829         0.206390        -0.296793
 C         1.260353        -0.077699         0.216500
 C         2.064952         1.048617         1.101576
 C         3.364128         0.469091         0.448927
 C         3.090271        -1.237495         0.448326
 C         3.141305        -1.158059        -1.086510
 C         2.555328         0.233545        -0.856263
 O         2.388774         1.235581        -1.849962
 O         1.639057        -1.351464         0.694815
 H        -0.801183        -0.037628         0.642058
 H        -0.252707         1.283320        -0.612529
 H        -0.498815        -0.483624        -1.065702
 H         1.638328         1.903636         0.636782
 H         2.078559         1.000788         2.213758
 H         4.366091         0.773065         0.537527
 H         3.599654        -2.065213         1.073992
 H         4.104594        -0.973516        -1.287657
 H         2.811707        -1.955841        -1.631828
 H         2.753006         2.122399        -1.541977
