19
Iteration:  2589
 C        -0.202473        -0.025749        -0.081954
 C         1.274356         0.038747         0.052535
 C         1.972050         0.996683         1.050958
 C         3.239268         0.300453         0.554229
 C         3.076500        -1.180787         0.437023
 C         3.363367        -0.992338        -1.085402
 C         2.479818         0.271417        -0.855190
 O         2.426367         1.351258        -1.822701
 O         1.744291        -1.307790         0.617628
 H        -0.801598        -0.347016         0.900434
 H        -0.605365         0.869778        -0.277067
 H        -0.777387        -0.676832        -0.807140
 H         1.885934         2.051227         0.725289
 H         1.591256         0.757923         2.028552
 H         4.263729         0.765337         0.629686
 H         3.743721        -1.733956         1.099932
 H         4.453803        -0.695117        -1.177593
 H         3.039675        -1.849038        -1.927129
 H         2.568900         0.800848        -2.587200
