19
Iteration:  3259charge 0 multiplicity 1
 C        -0.213714         0.082831        -0.132213
 C         1.300986         0.044775         0.134788
 C         2.035394         0.884854         1.242947
 C         3.304315         0.389622         0.377718
 C         3.115975        -1.151687         0.449667
 C         3.216540        -1.140301        -1.150388
 C         2.454570         0.272215        -0.908636
 O         2.472349         1.240539        -1.927490
 O         1.736731        -1.223653         0.722879
 H        -0.744885        -0.451099         0.811918
 H        -0.712378         1.100619        -0.397270
 H        -0.401168        -0.445257        -0.980270
 H         1.841330         1.957530         1.171427
 H         1.750239         0.604512         2.296218
 H         4.305479         0.872382         0.541515
 H         3.784222        -1.869310         0.934950
 H         4.242454        -0.955577        -1.508533
 H         2.841332        -1.981856        -1.750202
 H         1.712933         1.844365        -1.824401
