19
Iteration:  4438charge 0 multiplicity 1
 C        -0.093223         0.063749        -0.293206
 C         1.369280        -0.035436         0.188011
 C         1.982431         1.009709         1.062416
 C         3.386024         0.399299         0.474243
 C         3.199622        -1.137555         0.400012
 C         3.137383        -1.115132        -1.075531
 C         2.520927         0.263962        -0.901801
 O         2.284442         1.329635        -1.753016
 O         1.726385        -1.336376         0.772998
 H        -0.817602        -0.240377         0.462460
 H        -0.245538         1.073797        -0.604903
 H        -0.224618        -0.489513        -1.159360
 H         1.766672         2.029695         0.731061
 H         1.760173         0.907032         2.093854
 H         4.358715         0.903098         0.365922
 H         3.689038        -1.860658         0.984048
 H         4.043113        -1.152305        -1.678345
 H         2.624077        -2.023816        -1.458858
 H         1.376139         1.114514        -2.102117
