19
Iteration:  1312
 C        -0.180439         0.086697        -0.382830
 C         1.300119        -0.025938         0.169297
 C         1.937658         0.945436         1.201234
 C         3.252576         0.423242         0.611627
 C         3.143550        -1.149650         0.518287
 C         3.222363        -0.994616        -1.114571
 C         2.529356         0.296841        -0.858909
 O         2.346803         1.233948        -1.903585
 O         1.769773        -1.378015         0.667104
 H        -0.797089        -0.075477         0.665391
 H        -0.330442         1.013046        -0.882696
 H        -0.415127        -0.683092        -1.239561
 H         1.748040         2.022851         0.886205
 H         1.669837         0.800015         2.239113
 H         4.285245         0.757304         0.991747
 H         3.844508        -1.849016         0.996032
 H         4.173579        -0.874691        -1.515769
 H         2.808012        -1.840507        -1.669192
 H         3.207197         1.581084        -2.222133
