19
Iteration:  4653charge 0 multiplicity 1
 C        -0.098646         0.121033        -0.219748
 C         1.340254        -0.050826         0.163734
 C         1.918392         1.004739         1.101482
 C         3.291927         0.415774         0.489920
 C         3.181195        -1.142060         0.370156
 C         3.209294        -1.112371        -1.135016
 C         2.553835         0.227888        -0.897077
 O         2.291450         1.274771        -1.780095
 O         1.789634        -1.265682         0.756019
 H        -0.696603        -0.045363         0.634014
 H        -0.347883         1.004128        -0.708744
 H        -0.405437        -0.661533        -1.046071
 H         1.730561         2.052155         0.636575
 H         1.900939         0.936188         2.218226
 H         4.300134         0.673715         0.764057
 H         3.696662        -1.967850         0.834608
 H         4.212108        -1.133582        -1.484091
 H         2.635260        -1.998569        -1.542490
 H         1.454609         0.965236        -2.203032
