19
Iteration:  1347charge 0 multiplicity 1
 C        -0.054996         0.086147        -0.457689
 C         1.325588        -0.041414         0.122278
 C         1.991143         0.936351         1.168411
 C         3.247329         0.513558         0.504955
 C         3.140821        -1.152887         0.523294
 C         3.199250        -1.086024        -1.080981
 C         2.529087         0.225199        -0.835953
 O         2.273112         1.283975        -1.764632
 O         1.721776        -1.333443         0.681717
 H        -0.803082        -0.444751         0.361715
 H        -0.359093         1.158387        -0.485379
 H        -0.191489        -0.511146        -1.350540
 H         1.579108         1.960321         1.003566
 H         1.834154         0.583717         2.217968
 H         4.319259         0.897623         0.541969
 H         3.723684        -1.949561         1.053300
 H         4.134282        -0.830624        -1.378539
 H         2.728166        -1.906333        -1.595288
 H         3.098425         1.596767        -2.176150
