19
Iteration:  4691charge 0 multiplicity 1
 C        -0.208031        -0.032713        -0.027907
 C         1.270615         0.028269         0.194175
 C         2.078350         0.946999         1.199421
 C         3.219912         0.429571         0.416451
 C         3.122009        -1.084043         0.376241
 C         3.244468        -1.084882        -1.026010
 C         2.488452         0.281920        -0.932570
 O         2.509255         1.228307        -1.919607
 O         1.688666        -1.228038         0.603306
 H        -0.858242        -0.168801         0.922932
 H        -0.579878         0.932152        -0.565653
 H        -0.361269        -0.956812        -0.529602
 H         1.637868         1.891282         1.005214
 H         1.873394         0.688403         2.249933
 H         4.275569         0.807572         0.450774
 H         3.769552        -1.824158         0.940601
 H         4.225108        -0.761545        -1.510712
 H         2.983111        -2.002017        -1.537880
 H         1.811129         1.108864        -2.572775
