19
Iteration:  3113
 C        -0.028915         0.092281        -0.252556
 C         1.355818        -0.019738         0.163402
 C         2.065188         0.939674         1.130716
 C         3.287579         0.427224         0.363422
 C         3.098525        -1.180699         0.460552
 C         3.187778        -1.109610        -1.112316
 C         2.522102         0.239813        -0.915678
 O         2.212374         1.298294        -1.841913
 O         1.676330        -1.301973         0.795249
 H        -0.702243        -0.240121         0.476435
 H        -0.259815         1.094776        -0.454998
 H        -0.104677        -0.506841        -1.254558
 H         1.747569         1.956137         0.918329
 H         2.083502         0.630333         2.135111
 H         4.312325         0.688398         0.545302
 H         3.648309        -1.862171         1.135798
 H         4.232003        -1.044873        -1.342017
 H         2.885820        -1.912750        -1.750307
 H         2.597105         2.120776        -1.519600
