19
Iteration:  2230charge 0 multiplicity 1
 C        -0.301666        -0.073881        -0.098083
 C         1.206506         0.006114         0.081920
 C         1.941966         0.962843         1.109781
 C         3.279867         0.409430         0.556072
 C         3.163390        -1.145377         0.409028
 C         3.347884        -1.086195        -1.084391
 C         2.513835         0.260875        -0.878843
 O         2.562203         1.385760        -1.820429
 O         1.661802        -1.290404         0.607643
 H        -0.743176        -0.256693         0.786442
 H        -0.689965         0.954504        -0.423616
 H        -0.571198        -0.813489        -0.984643
 H         1.836287         2.070660         1.011220
 H         1.800545         0.806198         2.182207
 H         4.244540         0.952259         0.544822
 H         3.687196        -1.889423         1.016558
 H         4.282045        -0.752602        -1.391288
 H         3.030792        -1.881484        -1.702862
 H         2.247768         0.818728        -2.586095
