19
Iteration:  1616
 C        -0.145934         0.065507        -0.279785
 C         1.279663        -0.050845         0.097115
 C         1.854759         0.977543         1.130798
 C         3.204395         0.483331         0.559521
 C         3.141459        -1.140575         0.436869
 C         3.275260        -1.009967        -1.120294
 C         2.564889         0.210472        -0.884120
 O         2.409755         1.262295        -1.705939
 O         1.750189        -1.367374         0.634553
 H        -0.770073         0.133891         0.631273
 H        -0.258357         0.983598        -0.833862
 H        -0.653247        -0.792943        -0.991543
 H         1.548394         2.023321         0.835283
 H         1.788543         0.933470         2.224375
 H         4.269109         0.854061         0.760587
 H         3.806279        -1.819735         0.983996
 H         4.235313        -0.842303        -1.393663
 H         2.878371        -1.804778        -1.721375
 H         3.026772         1.118682        -2.435270
