19
Iteration:  2453
 C        -0.212036         0.067710        -0.325124
 C         1.321757        -0.125527         0.146778
 C         1.926972         0.976632         1.163531
 C         3.257580         0.499969         0.442994
 C         3.177932        -1.083073         0.422138
 C         3.269028        -1.140784        -1.117761
 C         2.545475         0.253069        -0.887390
 O         2.421164         1.356170        -1.738753
 O         1.724101        -1.367832         0.747315
 H        -0.808867        -0.385851         0.406628
 H        -0.437900         1.139655        -0.572211
 H        -0.463087        -0.458513        -1.192729
 H         1.715086         2.017639         0.968143
 H         1.945894         0.674864         2.237225
 H         4.174101         1.031162         0.631295
 H         3.751765        -1.814659         1.084572
 H         4.350104        -0.936534        -1.495807
 H         2.796646        -1.967560        -1.730989
 H         1.743183         1.046518        -2.414095
