19
Iteration:  1179charge 0 multiplicity 1
 C        -0.025432         0.041408        -0.402206
 C         1.305485        -0.053752         0.198275
 C         1.981899         1.074566         1.206548
 C         3.183746         0.466432         0.590992
 C         3.103338        -1.186538         0.414474
 C         3.339064        -1.110188        -1.069135
 C         2.591316         0.261272        -0.861098
 O         2.266224         1.242905        -1.765798
 O         1.657123        -1.323262         0.635158
 H        -0.898697        -0.443307         0.238211
 H        -0.501796         1.097027        -0.442616
 H        -0.139843        -0.574629        -1.374268
 H         1.887187         1.992907         0.622138
 H         1.758219         1.257954         2.279427
 H         4.190595         0.793540         0.777861
 H         3.711132        -1.942513         0.896721
 H         4.289973        -0.920214        -1.376519
 H         2.775499        -1.629152        -1.782566
 H         2.920910         1.266877        -2.479451
