19
Iteration:  1872charge 0 multiplicity 1
 C        -0.150816         0.000868        -0.325380
 C         1.269070        -0.013166         0.146498
 C         1.915628         0.899719         1.313105
 C         3.255489         0.489400         0.537202
 C         3.077301        -1.045443         0.447021
 C         3.199011        -1.082671        -1.165994
 C         2.525717         0.295954        -0.868885
 O         2.459308         1.238802        -1.891972
 O         1.767119        -1.300372         0.633530
 H        -0.859867        -0.383818         0.613420
 H        -0.522831         1.121982        -0.652361
 H        -0.229815        -0.714700        -1.058942
 H         1.537149         1.969997         1.432319
 H         1.751164         0.527632         2.356173
 H         4.243214         0.872604         0.788630
 H         3.761750        -1.706328         1.148340
 H         4.111556        -1.043732        -1.690876
 H         2.608871        -1.914773        -1.516972
 H         3.404711         1.258215        -2.100278
