19
Iteration:  4875
 C        -0.228757        -0.057017         0.003370
 C         1.272845         0.049546         0.113637
 C         1.966041         1.036519         1.130089
 C         3.241758         0.402210         0.464144
 C         3.145016        -1.114834         0.380862
 C         3.192506        -1.034889        -1.107432
 C         2.567829         0.294018        -0.881777
 O         2.456956         1.146548        -1.988814
 O         1.730450        -1.306216         0.655447
 H        -0.648988        -0.285872         1.025287
 H        -0.729942         0.890383        -0.289786
 H        -0.464184        -0.908733        -0.530627
 H         1.839375         2.150669         0.911527
 H         1.930143         0.953680         2.289563
 H         4.276580         0.805824         0.401141
 H         3.871759        -1.622334         1.035756
 H         4.325765        -1.004288        -1.294375
 H         2.726146        -1.868612        -1.595847
 H         2.514127         2.065368        -1.674151
