19
Iteration:  2385
 C        -0.233335        -0.088840        -0.118107
 C         1.262108        -0.055199         0.122358
 C         1.964165         0.949641         1.094522
 C         3.236573         0.416973         0.498287
 C         3.140144        -1.146811         0.536314
 C         3.309460        -1.038261        -1.080024
 C         2.596898         0.291160        -0.938618
 O         2.521339         1.403859        -1.822967
 O         1.622625        -1.304023         0.575078
 H        -0.704317        -0.189453         0.844598
 H        -0.702951         0.901613        -0.535814
 H        -0.585253        -0.954126        -0.668139
 H         1.711369         1.979477         0.724660
 H         1.778013         0.837308         2.191516
 H         4.305505         0.802479         0.518111
 H         3.737861        -1.787352         1.250349
 H         4.364976        -0.784341        -1.306305
 H         3.017746        -1.870990        -1.688236
 H         1.992044         1.064236        -2.550151
