19
Iteration:  1829charge 0 multiplicity 1
 C        -0.078162         0.010924        -0.414670
 C         1.412040         0.000038         0.134397
 C         1.992892         1.008530         1.120168
 C         3.277965         0.430463         0.586787
 C         3.086879        -1.183015         0.482751
 C         3.345022        -1.127708        -1.122814
 C         2.562231         0.232912        -0.818485
 O         2.159942         1.290888        -1.734029
 O         1.652680        -1.326734         0.645700
 H        -0.866397         0.029589         0.535379
 H        -0.077655         1.139437        -0.919042
 H        -0.178649        -0.668738        -1.208960
 H         1.801351         2.049346         0.731795
 H         1.652989         1.012685         2.153851
 H         4.346160         0.679207         0.688190
 H         3.598030        -1.850595         1.244753
 H         4.301129        -0.875122        -1.339373
 H         2.914570        -1.759438        -1.845467
 H         2.835821         1.878113        -2.046423
