19
Iteration:  3899charge 0 multiplicity 1
 C        -0.247841         0.012602        -0.056621
 C         1.248257         0.014131         0.192944
 C         1.985711         0.971341         1.110158
 C         3.284744         0.418537         0.428178
 C         3.153721        -1.105605         0.390316
 C         3.119403        -1.046903        -1.118390
 C         2.493735         0.284922        -0.913036
 O         2.457873         1.257166        -1.889327
 O         1.793088        -1.349072         0.727860
 H        -0.666097        -0.050463         0.894897
 H        -0.383651         1.002274        -0.578415
 H        -0.608490        -0.754225        -0.849195
 H         1.797396         2.005352         0.852902
 H         1.919474         0.853833         2.208008
 H         4.350728         0.718759         0.524853
 H         3.818627        -1.677256         1.015220
 H         4.174936        -0.865309        -1.494264
 H         2.524297        -1.820327        -1.642623
 H         3.128763         1.003947        -2.555209
