19
Iteration:   238charge 0 multiplicity 1
 C        -0.130979         0.110535        -0.223432
 C         1.369114         0.113238         0.128597
 C         1.992754         0.943023         1.263020
 C         3.342770         0.459159         0.536618
 C         3.071745        -1.250304         0.351084
 C         3.103371        -1.202295        -1.153843
 C         2.521578         0.280967        -0.807113
 O         2.536843         1.154683        -1.909370
 O         1.656239        -1.181389         0.667458
 H        -0.644907        -0.041000         0.679765
 H        -0.532852         1.057047        -0.600772
 H        -0.394419        -0.634159        -0.955941
 H         1.647836         2.025350         1.126800
 H         1.743484         0.620110         2.291226
 H         4.373083         0.897916         0.738389
 H         3.598310        -1.946885         0.974746
 H         4.186625        -1.039849        -1.685001
 H         2.523763        -2.051704        -1.735072
 H         1.701845         1.623317        -1.912474
