19
Iteration:  4542
 C        -0.259639         0.024943         0.062990
 C         1.271963        -0.060365         0.157728
 C         2.018281         0.997051         1.101441
 C         3.251130         0.484026         0.364527
 C         3.144474        -1.043770         0.429140
 C         3.320038        -1.124568        -1.102720
 C         2.382946         0.163803        -1.011681
 O         2.560372         1.346873        -1.798067
 O         1.694207        -1.372582         0.588756
 H        -0.790568         0.066916         0.984513
 H        -0.452187         1.045101        -0.335377
 H        -0.752687        -0.727016        -0.609731
 H         1.722152         2.073878         1.070136
 H         1.851518         0.714275         2.165934
 H         4.322145         0.673109         0.437022
 H         3.809662        -1.657617         1.182886
 H         4.304855        -0.734399        -1.215085
 H         2.896879        -2.003979        -1.585454
 H         1.996931         1.201350        -2.576429
