19
Iteration:   941
 C        -0.100046        -0.016593        -0.220045
 C         1.332354        -0.056888         0.093691
 C         1.904741         1.032233         1.095632
 C         3.228725         0.409579         0.573208
 C         3.047097        -1.225564         0.468885
 C         3.207561        -1.033805        -1.058664
 C         2.594746         0.283999        -0.868534
 O         2.543097         1.342607        -1.884020
 O         1.677544        -1.337472         0.629643
 H        -0.577698        -0.254978         0.776264
 H        -0.444726         0.963298        -0.219686
 H        -0.421991        -0.612231        -1.099598
 H         1.708013         2.046414         0.713884
 H         1.569471         0.882570         2.066874
 H         4.331151         0.719368         0.920458
 H         3.693258        -1.869368         1.095799
 H         4.305396        -0.980355        -1.348681
 H         2.611261        -1.844769        -1.659593
 H         1.648673         1.685963        -1.997986
