19
Iteration:  2356charge 0 multiplicity 1
 C        -0.146950         0.094645        -0.319595
 C         1.287335        -0.064682         0.171657
 C         1.846676         0.965813         1.079646
 C         3.200989         0.480328         0.486900
 C         3.216856        -1.188439         0.461541
 C         3.220102        -1.102306        -1.166416
 C         2.538566         0.242969        -0.853752
 O         2.453721         1.319334        -1.655121
 O         1.800474        -1.333313         0.693981
 H        -0.980046         0.063403         0.598933
 H        -0.215755         1.083216        -0.783923
 H        -0.497893        -0.663626        -0.971625
 H         1.576286         1.903386         0.672044
 H         1.642301         0.824191         2.142327
 H         4.123490         0.992121         0.344422
 H         3.939309        -1.847017         1.016458
 H         4.275824        -0.810839        -1.561172
 H         2.800222        -1.946850        -1.811078
 H         1.841366         1.019881        -2.381835
