19
Iteration:   704charge 0 multiplicity 1
 C        -0.159266         0.122760        -0.301947
 C         1.293003        -0.037171         0.142018
 C         2.062470         0.892360         1.209476
 C         3.337788         0.391457         0.554188
 C         3.134023        -1.154559         0.474257
 C         3.118332        -1.060203        -1.111241
 C         2.579637         0.323743        -0.866198
 O         2.384203         1.184433        -1.931387
 O         1.668082        -1.314048         0.686552
 H        -0.688201         0.311041         0.641072
 H        -0.131682         1.029476        -0.854412
 H        -0.569585        -0.720063        -0.918502
 H         1.776179         1.994313         0.802656
 H         1.852831         0.928547         2.339503
 H         4.382294         0.825580         0.790416
 H         3.599957        -1.890750         1.150861
 H         4.101400        -0.850971        -1.774071
 H         2.353814        -1.900713        -1.578124
 H         2.621098         2.130431        -1.698327
