19
Iteration:  2392charge 0 multiplicity 1
 C        -0.272588        -0.109969        -0.062427
 C         1.249445        -0.008051         0.087428
 C         1.963321         0.915707         1.106261
 C         3.260276         0.431147         0.464669
 C         3.100419        -1.180795         0.510799
 C         3.309907        -1.004152        -1.099018
 C         2.642358         0.278137        -0.840964
 O         2.541387         1.386647        -1.864588
 O         1.651918        -1.249717         0.546669
 H        -0.757333        -0.265655         0.945431
 H        -0.725031         0.701604        -0.493167
 H        -0.417870        -1.026440        -0.752603
 H         1.757234         2.002776         0.901449
 H         1.636231         0.723434         2.127403
 H         4.214448         0.942249         0.591063
 H         3.460021        -1.738783         1.325067
 H         4.345658        -0.855774        -1.239777
 H         2.943014        -1.871673        -1.657938
 H         1.948023         0.877427        -2.474543
