19
Iteration:  1935charge 0 multiplicity 1
 C        -0.138905        -0.025544        -0.200369
 C         1.330290         0.034088         0.094991
 C         1.927134         1.010308         1.081671
 C         3.315855         0.420706         0.524718
 C         3.063668        -1.231888         0.463808
 C         3.405737        -1.065041        -1.078724
 C         2.564665         0.254849        -0.818383
 O         2.303269         1.333585        -1.737796
 O         1.627977        -1.278395         0.578265
 H        -0.647456        -0.321673         0.646000
 H        -0.567722         0.892929        -0.584712
 H        -0.356271        -0.840455        -0.969948
 H         1.818772         1.990099         0.594927
 H         1.641097         0.950817         2.147282
 H         4.273278         0.907050         0.636578
 H         3.470533        -2.131908         1.041794
 H         4.525409        -0.738647        -1.266754
 H         3.062144        -1.905519        -1.788506
 H         2.778745         1.084845        -2.518325
