19
Iteration:  2611charge 0 multiplicity 1
 C        -0.153469         0.042713        -0.212488
 C         1.307362        -0.045204         0.181709
 C         1.928930         0.910224         1.210111
 C         3.254208         0.564233         0.500427
 C         3.189273        -1.136681         0.444541
 C         3.274375        -1.070766        -1.121846
 C         2.569928         0.205720        -0.874022
 O         2.349269         1.305735        -1.837054
 O         1.672566        -1.306766         0.611835
 H        -0.911178        -0.363780         0.638842
 H        -0.553633         0.953580        -0.420365
 H        -0.439176        -0.649267        -1.075471
 H         1.648274         1.951368         0.960440
 H         2.023345         0.663086         2.257011
 H         4.280860         1.024610         0.650540
 H         3.778810        -1.917783         0.958523
 H         4.349355        -1.083900        -1.515568
 H         2.491344        -1.888630        -1.650368
 H         3.058415         1.223621        -2.546104
