19
Iteration:  3862charge 0 multiplicity 1
 C        -0.185385        -0.057607        -0.009348
 C         1.272312         0.056802         0.066376
 C         2.026956         1.025487         1.110689
 C         3.315562         0.387316         0.418938
 C         3.069451        -1.129882         0.438950
 C         3.170307        -1.089137        -1.169197
 C         2.591774         0.280485        -0.917135
 O         2.377206         1.249558        -1.811324
 O         1.719779        -1.223809         0.678784
 H        -0.777176        -0.268507         0.967506
 H        -0.726761         0.826102        -0.345482
 H        -0.427251        -0.992174        -0.557779
 H         1.870649         2.101142         0.915263
 H         1.842750         0.763108         2.102009
 H         4.329990         0.712849         0.599655
 H         3.745982        -1.822372         0.990703
 H         4.211013        -1.096637        -1.427540
 H         2.792244        -1.956885        -1.654942
 H         2.978453         1.182790        -2.548976
