19
Iteration:  2140charge 0 multiplicity 1
 C        -0.031882         0.110402        -0.334621
 C         1.344728        -0.086844         0.114020
 C         2.010272         0.949201         1.057439
 C         3.287811         0.440491         0.551088
 C         3.055413        -1.161200         0.482600
 C         3.271112        -1.053475        -1.076769
 C         2.559206         0.216901        -0.844926
 O         2.166287         1.264613        -1.751959
 O         1.702524        -1.321002         0.665464
 H        -0.812311         0.061039         0.437841
 H        -0.191957         1.029450        -0.791981
 H        -0.222130        -0.644516        -1.228441
 H         1.923571         1.908570         0.575741
 H         1.992567         1.058994         2.197324
 H         4.298429         0.764651         0.568403
 H         3.784997        -1.959998         0.888712
 H         4.307856        -0.987521        -1.218891
 H         2.893160        -1.844330        -1.663500
 H         2.679179         2.057849        -1.569604
