19
Iteration:  4501charge 0 multiplicity 1
 C        -0.136591         0.017868        -0.116973
 C         1.304884        -0.026804         0.163221
 C         2.004365         1.051062         1.146684
 C         3.324081         0.408562         0.586509
 C         3.101972        -1.136373         0.409884
 C         3.140525        -1.082178        -1.180743
 C         2.589054         0.310578        -0.899898
 O         2.370617         1.267720        -1.874157
 O         1.761564        -1.342603         0.669692
 H        -0.862309        -0.151553         0.682263
 H        -0.399400         0.986173        -0.501942
 H        -0.432377        -0.882799        -0.870556
 H         1.823189         2.134195         0.806575
 H         1.769090         1.003199         2.238874
 H         4.362485         0.786676         0.712277
 H         3.730183        -1.876683         0.968452
 H         4.128897        -0.871994        -1.639578
 H         2.631531        -1.973942        -1.638168
 H         1.727806         1.068290        -2.594827
