19
Iteration:  3228
 C        -0.186623         0.024837         0.110430
 C         1.300658        -0.018316         0.160098
 C         1.970121         1.049507         1.042587
 C         3.306978         0.398880         0.480213
 C         3.048702        -1.171852         0.420321
 C         3.212943        -1.032845        -1.146817
 C         2.615424         0.305639        -0.840536
 O         2.554132         1.224007        -1.925495
 O         1.651830        -1.355421         0.541976
 H        -0.673808        -0.303577         1.118257
 H        -0.739566         0.987384        -0.024747
 H        -0.443046        -0.712597        -0.590837
 H         1.838658         1.960522         0.315404
 H         1.602739         1.276400         2.178899
 H         4.303135         0.816445         0.798726
 H         3.574004        -1.932624         0.951214
 H         4.252878        -1.063609        -1.483435
 H         2.619659        -1.743009        -1.811407
 H         1.689321         1.677079        -1.847988
