19
Iteration:  2734
 C        -0.170885        -0.073206        -0.055225
 C         1.231605        -0.040009         0.201402
 C         1.966281         0.899441         1.192999
 C         3.206359         0.444269         0.442700
 C         3.126346        -1.098593         0.446659
 C         3.221487        -1.048259        -1.141008
 C         2.489152         0.322844        -0.878084
 O         2.576428         1.361011        -1.930829
 O         1.688819        -1.342179         0.625328
 H        -0.753337        -0.150618         0.822176
 H        -0.277604         1.026967        -0.396537
 H        -0.632922        -0.706940        -0.736171
 H         1.643423         1.866711         0.888074
 H         1.861008         0.632735         2.289490
 H         4.125067         0.921283         0.623386
 H         3.716983        -1.677944         1.207151
 H         4.219422        -0.626706        -1.517344
 H         2.682840        -1.777733        -1.881893
 H         2.855706         0.849537        -2.731839
