19
Iteration:  4013
 C        -0.219329        -0.020453        -0.106318
 C         1.286753         0.020151         0.198784
 C         2.024696         0.991377         1.166756
 C         3.268690         0.473529         0.466273
 C         3.155996        -1.089503         0.398575
 C         3.128887        -1.124101        -1.114720
 C         2.500753         0.279602        -0.915377
 O         2.406115         1.282598        -1.837552
 O         1.779558        -1.332722         0.640270
 H        -0.972157        -0.151132         0.750239
 H        -0.496074         0.754012        -0.760472
 H        -0.355546        -0.771587        -0.755170
 H         1.917246         2.095471         0.939659
 H         2.059178         0.961578         2.255305
 H         4.230716         0.976889         0.395837
 H         3.836557        -1.698191         1.047677
 H         4.139030        -1.340551        -1.522087
 H         2.426480        -1.934684        -1.551406
 H         3.011447         1.081100        -2.574931
