19
Iteration:  1297
 C        -0.132520        -0.007699        -0.270926
 C         1.305040        -0.026222         0.055906
 C         2.000922         0.909494         1.157674
 C         3.303878         0.478719         0.598291
 C         3.143972        -1.103794         0.472967
 C         3.293318        -1.086958        -0.979703
 C         2.539518         0.295815        -0.831418
 O         2.309090         1.272854        -1.849937
 O         1.617799        -1.319320         0.533053
 H        -0.772068         0.040481         0.509493
 H        -0.310157         0.999700        -0.791435
 H        -0.365518        -0.944845        -0.810328
 H         1.838533         1.935223         0.975982
 H         1.778511         0.678871         2.213460
 H         4.218991         0.984148         0.619667
 H         3.535266        -1.787137         1.211337
 H         4.433967        -0.828188        -1.312911
 H         2.674760        -1.819344        -1.536795
 H         3.206004         1.504917        -2.252010
