19
Iteration:   531charge 0 multiplicity 1
 C        -0.146829         0.162732        -0.193149
 C         1.343664         0.117410         0.148239
 C         2.088265         1.003760         1.159465
 C         3.328640         0.295499         0.484356
 C         3.050529        -1.202571         0.442828
 C         3.224928        -1.227552        -1.137872
 C         2.562414         0.175465        -0.906973
 O         2.319239         1.324433        -1.743536
 O         1.649154        -1.252075         0.628236
 H        -0.782220         0.053938         0.707079
 H        -0.316077         1.145700        -0.815996
 H        -0.455151        -0.725850        -0.901038
 H         2.060385         1.994104         0.672821
 H         1.959733         0.990524         2.241235
 H         4.391304         0.745622         0.744296
 H         3.625218        -1.799766         1.182401
 H         4.219278        -0.936583        -1.368375
 H         2.905750        -2.059110        -1.770511
 H         2.001237         1.073156        -2.611787
