19
Iteration:  4354
 C        -0.201734         0.036315         0.006690
 C         1.260622        -0.041118         0.214702
 C         1.956975         0.979540         1.146732
 C         3.274170         0.507490         0.471173
 C         3.196973        -1.131487         0.354399
 C         3.115105        -1.092403        -1.159608
 C         2.485034         0.277414        -0.866434
 O         2.531322         1.234097        -1.877648
 O         1.792020        -1.338675         0.608369
 H        -1.017591         0.066810         0.764833
 H        -0.461946         1.026696        -0.609824
 H        -0.554039        -0.781597        -0.663605
 H         1.684239         1.950009         0.740150
 H         1.872878         0.929513         2.266699
 H         4.186334         1.002476         0.757483
 H         3.698404        -1.633230         1.095972
 H         4.105313        -0.746966        -1.513438
 H         2.554233        -1.836083        -1.666281
 H         2.250418         0.798280        -2.682484
