19
Iteration:   485
 C        -0.176779         0.205030        -0.204986
 C         1.299801         0.011359         0.211561
 C         1.956266         0.962650         1.209426
 C         3.293219         0.317091         0.555113
 C         3.181085        -1.161125         0.387860
 C         3.097129        -1.191463        -1.219829
 C         2.497672         0.245775        -0.852722
 O         2.504673         1.316428        -1.874856
 O         1.758793        -1.250782         0.734607
 H        -0.919360         0.070797         0.617981
 H        -0.323578         1.122949        -0.788134
 H        -0.542423        -0.652182        -0.901743
 H         1.901284         2.057302         0.881834
 H         1.540240         0.784808         2.213501
 H         4.382633         0.653238         0.498812
 H         3.497309        -1.924492         1.034905
 H         4.121435        -1.286330        -1.750304
 H         2.271736        -1.823372        -1.705782
 H         2.609568         0.816083        -2.691743
