19
Iteration:  2891
 C        -0.246056         0.071532         0.038410
 C         1.201415        -0.057746         0.157517
 C         1.931658         0.955449         1.104083
 C         3.185998         0.463635         0.450311
 C         3.159856        -1.149621         0.353069
 C         3.335471        -1.055334        -1.132490
 C         2.479130         0.236904        -0.930591
 O         2.568442         1.210540        -1.820241
 O         1.750801        -1.316017         0.585845
 H        -0.724280        -0.161584         0.883741
 H        -0.448887         1.145460        -0.267314
 H        -0.566381        -0.722377        -0.713379
 H         1.733887         2.058231         0.856006
 H         1.487684         0.793344         2.092826
 H         4.236456         0.975278         0.252482
 H         3.717307        -1.832769         1.076206
 H         4.350131        -0.723245        -1.511804
 H         2.942778        -1.872956        -1.736187
 H         2.127373         1.976013        -1.479335
