19
Iteration:  2952
 C        -0.100531        -0.023869        -0.340659
 C         1.312541         0.065182         0.192906
 C         2.135620         0.980055         1.333640
 C         3.312947         0.426479         0.530267
 C         3.118186        -1.128332         0.384532
 C         3.165244        -1.052049        -1.173558
 C         2.426729         0.244092        -0.820567
 O         2.332629         1.162656        -1.885072
 O         1.733906        -1.256574         0.654495
 H        -0.736065        -0.451613         0.615611
 H        -0.769473         0.709937        -0.860476
 H        -0.066369        -0.666297        -1.132206
 H         1.955378         2.011477         1.034547
 H         1.737489         0.840231         2.376703
 H         4.287267         0.740611         0.568456
 H         3.431881        -1.873001         1.090939
 H         4.069862        -0.670594        -1.717107
 H         2.722393        -1.781523        -1.857616
 H         2.382972         2.035755        -1.515702
