19
Iteration:  1790
 C        -0.120237         0.061036        -0.342081
 C         1.268710        -0.061637         0.101113
 C         1.896490         0.910888         1.149356
 C         3.245006         0.437740         0.523194
 C         3.178977        -1.132997         0.539640
 C         3.216662        -1.095639        -1.102900
 C         2.536552         0.258758        -0.860453
 O         2.360431         1.350220        -1.775254
 O         1.732261        -1.348993         0.675534
 H        -0.736385         0.153921         0.464092
 H        -0.137045         0.931850        -0.899120
 H        -0.471174        -0.681512        -1.146690
 H         1.705236         1.973022         0.881587
 H         1.673539         0.634797         2.194125
 H         4.218027         1.001339         0.639132
 H         3.840099        -1.704503         1.161918
 H         4.308023        -0.758917        -1.473219
 H         2.755033        -1.875217        -1.823765
 H         3.215258         1.299654        -2.296032
