19
Iteration:   168charge 0 multiplicity 1
 C        -0.146614         0.119807        -0.281863
 C         1.344141         0.078673         0.074380
 C         2.044797         0.947084         1.139702
 C         3.341224         0.291824         0.587690
 C         3.115676        -1.200944         0.502852
 C         3.201653        -1.156105        -1.121951
 C         2.572067         0.259080        -0.873653
 O         2.309129         1.263090        -1.808734
 O         1.631125        -1.163279         0.654174
 H        -0.572788        -0.013768         0.723093
 H        -0.613640         1.009974        -0.634576
 H        -0.530073        -0.707372        -0.866683
 H         2.067497         1.996440         0.859687
 H         1.810130         0.789383         2.201764
 H         4.368520         0.680620         0.665205
 H         3.482411        -2.022582         1.182850
 H         4.186350        -1.003277        -1.557325
 H         2.721600        -1.965197        -1.673631
 H         2.881902         1.106870        -2.557701
