19
Iteration:  4155
 C        -0.081060        -0.047897        -0.248499
 C         1.278281         0.018880         0.143833
 C         2.045812         1.039701         1.193092
 C         3.346058         0.390278         0.445163
 C         3.150457        -1.108260         0.377751
 C         3.145307        -1.116328        -1.109520
 C         2.482578         0.261369        -0.870898
 O         2.250729         1.230345        -1.702795
 O         1.750657        -1.231207         0.652715
 H        -0.795894        -0.184033         0.658650
 H        -0.424999         0.814344        -0.898249
 H        -0.241438        -0.865482        -0.938806
 H         2.092156         2.157497         0.980171
 H         1.922135         1.002424         2.268786
 H         4.318335         0.965002         0.470196
 H         3.742434        -1.887122         0.950423
 H         4.106502        -0.959866        -1.608950
 H         2.652782        -2.064946        -1.490097
 H         2.716805         1.319647        -2.561135
