19
Iteration:  1848charge 0 multiplicity 1
 C        -0.093739         0.001235        -0.416185
 C         1.308539         0.030350         0.164885
 C         2.005253         0.928025         1.187454
 C         3.282719         0.364241         0.572459
 C         3.155449        -1.156859         0.451365
 C         3.200134        -0.981104        -1.033128
 C         2.557402         0.311831        -0.826979
 O         2.278875         1.211868        -1.872841
 O         1.658656        -1.280913         0.659252
 H        -0.810122        -0.261257         0.391983
 H        -0.382910         0.982638        -0.853259
 H        -0.123998        -0.836231        -1.082014
 H         1.885679         2.002830         1.064953
 H         1.884811         0.765474         2.309592
 H         4.125554         0.938252         0.804995
 H         3.830784        -2.032150         0.747817
 H         4.308973        -0.870336        -1.270025
 H         2.754982        -1.774705        -1.711095
 H         3.052835         1.750570        -1.989698
