19
Iteration:  1521
 C        -0.080146         0.061751        -0.475855
 C         1.294366         0.007335         0.133733
 C         1.892612         0.916910         1.280864
 C         3.266996         0.446386         0.520584
 C         3.233872        -1.114075         0.499452
 C         3.203144        -1.164065        -1.091609
 C         2.553690         0.257142        -0.899335
 O         2.317399         1.322360        -1.835357
 O         1.720227        -1.315968         0.764324
 H        -0.936154        -0.366976         0.177531
 H        -0.436374         1.006549        -0.762780
 H        -0.237114        -0.500057        -1.336279
 H         1.642373         1.955687         1.147772
 H         1.600969         0.638695         2.317211
 H         4.185047         1.047138         0.626797
 H         3.814131        -1.873825         1.011255
 H         4.261021        -1.262583        -1.696551
 H         2.554618        -1.920329        -1.641765
 H         3.099608         1.772113        -2.119453
