19
Iteration:  2895
 C        -0.244595         0.076002         0.029866
 C         1.199272        -0.095560         0.136871
 C         1.910657         0.976287         1.096199
 C         3.175892         0.453921         0.451653
 C         3.197166        -1.114848         0.339852
 C         3.333416        -1.079477        -1.152203
 C         2.485230         0.233674        -0.930075
 O         2.574057         1.221746        -1.825640
 O         1.748632        -1.313714         0.619159
 H        -0.822859        -0.127159         1.002597
 H        -0.316132         1.093928        -0.156030
 H        -0.621028        -0.627492        -0.727729
 H         1.829484         2.063353         0.869116
 H         1.479316         0.658710         2.074922
 H         4.128731         0.962591         0.416039
 H         3.648961        -1.835010         1.008156
 H         4.272734        -0.760611        -1.464756
 H         2.917266        -1.887614        -1.746805
 H         2.170901         2.056886        -1.453353
