19
Iteration:  2673charge 0 multiplicity 1
 C        -0.051778         0.001481        -0.372140
 C         1.358991        -0.010886         0.173762
 C         2.071735         0.999313         1.143810
 C         3.318842         0.445110         0.475178
 C         3.064446        -1.191864         0.428739
 C         3.224150        -1.053010        -1.070780
 C         2.547213         0.292124        -0.848327
 O         2.227593         1.251402        -1.776689
 O         1.672839        -1.345721         0.654324
 H        -0.646049        -0.057207         0.582546
 H        -0.298815         0.937509        -0.923304
 H        -0.162110        -0.856005        -1.083377
 H         1.724629         2.024443         0.829025
 H         1.938841         1.010907         2.219571
 H         4.371062         0.734361         0.637277
 H         3.786518        -1.832616         0.845263
 H         4.281175        -0.911376        -1.211686
 H         2.876435        -1.701036        -1.792925
 H         1.839570         1.901390        -1.115883
