19
Iteration:  1223charge 0 multiplicity 1
 C        -0.121488        -0.000364        -0.400230
 C         1.327995         0.017161         0.122939
 C         1.900093         0.993045         1.286815
 C         3.207678         0.487765         0.565158
 C         3.189611        -1.120640         0.450701
 C         3.234711        -1.139274        -1.169821
 C         2.562031         0.233404        -0.873110
 O         2.366730         1.261782        -1.817284
 O         1.687639        -1.308425         0.654497
 H        -0.843795        -0.131392         0.577197
 H        -0.400201         1.044159        -0.787967
 H        -0.219047        -0.871037        -1.185498
 H         1.775931         2.098324         1.242312
 H         1.745991         0.693269         2.327893
 H         4.114942         1.129194         0.603303
 H         3.744068        -1.820776         1.060325
 H         4.213952        -1.179588        -1.498019
 H         2.671442        -2.010971        -1.406505
 H         3.240552         1.675531        -1.927058
