19
Iteration:  1811charge 0 multiplicity 1
 C        -0.136375         0.154388        -0.414242
 C         1.292514        -0.080895         0.083830
 C         1.918786         0.975221         1.053367
 C         3.265914         0.436341         0.516485
 C         3.178513        -1.155038         0.460243
 C         3.325792        -1.122841        -1.052435
 C         2.568311         0.216055        -0.880943
 O         2.207024         1.316997        -1.589773
 O         1.739339        -1.335519         0.653389
 H        -0.694125         0.074295         0.458883
 H        -0.307615         1.048542        -0.968925
 H        -0.342105        -0.688229        -1.170922
 H         1.889120         2.031626         0.720331
 H         1.740451         0.848348         2.114687
 H         4.299806         0.916039         0.654556
 H         3.648404        -1.846213         1.108629
 H         4.487080        -1.115029        -1.334316
 H         2.806861        -2.089698        -1.391966
 H         2.885948         1.571010        -2.203136
