19
Iteration:  2097charge 0 multiplicity 1
 C        -0.191122        -0.045090        -0.158723
 C         1.280714         0.012262         0.139394
 C         1.955363         0.890036         1.194202
 C         3.270148         0.450267         0.507226
 C         3.080494        -1.083251         0.411655
 C         3.181118        -1.032303        -1.091690
 C         2.479903         0.313094        -0.882169
 O         2.506903         1.238353        -1.872220
 O         1.737759        -1.260410         0.615837
 H        -0.721414        -0.324426         0.764670
 H        -0.435862         0.941585        -0.479200
 H        -0.380855        -0.826382        -1.107195
 H         1.729164         1.915988         1.070097
 H         1.644428         0.366542         2.117970
 H         4.184328         0.984075         0.659481
 H         3.633219        -1.737609         1.190057
 H         4.192073        -0.940569        -1.345709
 H         2.694984        -1.754402        -1.690139
 H         3.390835         1.207492        -2.326144
