19
Iteration:   885
 C        -0.079455         0.122066        -0.343843
 C         1.274391        -0.062951         0.255397
 C         1.948393         0.880343         1.198935
 C         3.235850         0.465158         0.466999
 C         3.115987        -1.141223         0.439568
 C         3.235321        -1.076976        -1.117263
 C         2.569615         0.224229        -0.907047
 O         2.461157         1.374956        -1.805925
 O         1.646087        -1.361192         0.717389
 H        -0.863477         0.222591         0.423040
 H        -0.088952         0.862013        -1.075485
 H        -0.343441        -0.827210        -0.804308
 H         1.716314         1.865316         0.867413
 H         1.748543         0.801940         2.233558
 H         4.162633         1.061366         0.633947
 H         3.797612        -1.777344         1.061913
 H         4.334703        -1.008961        -1.288720
 H         2.732846        -1.926980        -1.724387
 H         2.014027         1.115466        -2.622261
