19
Iteration:  2226
 C        -0.293427        -0.060611        -0.138821
 C         1.228750        -0.002683         0.119262
 C         1.945115         0.960121         1.117804
 C         3.255936         0.419353         0.583098
 C         3.160260        -1.156324         0.377597
 C         3.335206        -1.073554        -1.113509
 C         2.520010         0.281632        -0.869706
 O         2.543243         1.356981        -1.840411
 O         1.644398        -1.261676         0.606032
 H        -0.750259        -0.393431         0.914593
 H        -0.630142         0.836774        -0.470874
 H        -0.490697        -0.872812        -0.818088
 H         2.016393         2.041194         1.023812
 H         1.798933         0.856187         2.258232
 H         4.221851         0.863667         0.762136
 H         3.768777        -1.889540         1.023050
 H         4.426750        -0.733103        -1.306528
 H         3.014092        -1.961830        -1.737935
 H         2.325531         0.855712        -2.617451
