19
Iteration:  2530charge 0 multiplicity 1
 C        -0.185750        -0.051016        -0.259645
 C         1.333400         0.008236         0.122703
 C         1.950215         0.813762         1.175031
 C         3.287584         0.496889         0.527223
 C         3.218143        -1.076762         0.387019
 C         3.147311        -1.089760        -1.105408
 C         2.391484         0.256325        -0.849474
 O         2.560924         1.342279        -1.858479
 O         1.718314        -1.291899         0.716692
 H        -0.740578         0.039311         0.654070
 H        -0.382914         0.976477        -0.818074
 H        -0.444714        -0.843508        -0.899585
 H         1.728038         1.859057         1.008618
 H         1.611121         0.495170         2.179770
 H         4.113299         1.144365         0.651440
 H         3.870724        -1.674690         1.035544
 H         4.152504        -0.798708        -1.543042
 H         2.760876        -2.106562        -1.451186
 H         1.691682         1.347274        -2.323597
