19
Iteration:  2117
 C        -0.179937         0.002612        -0.266708
 C         1.314939         0.064888         0.133567
 C         1.951877         1.019164         1.200898
 C         3.290319         0.414547         0.565964
 C         3.163813        -1.208131         0.435667
 C         3.304358        -1.100570        -1.099298
 C         2.575290         0.244847        -0.868320
 O         2.313357         1.247345        -1.848513
 O         1.642862        -1.294329         0.607530
 H        -0.702158        -0.222813         0.743275
 H        -0.617329         0.876815        -0.582964
 H        -0.372095        -0.769346        -1.052203
 H         1.934951         2.071775         0.878742
 H         1.811793         0.904553         2.332311
 H         4.286735         0.798961         0.776362
 H         3.829365        -1.911897         1.026749
 H         4.218521        -0.839489        -1.601043
 H         2.797167        -1.854213        -1.684972
 H         2.984581         1.979836        -2.010829
