19
Iteration:  4815
 C        -0.123223         0.115782        -0.237682
 C         1.319041        -0.046504         0.216350
 C         2.015493         0.991154         1.175065
 C         3.311606         0.546393         0.544068
 C         3.252106        -1.136409         0.433159
 C         3.083925        -1.052716        -1.153268
 C         2.538894         0.182785        -0.876375
 O         2.313512         1.139184        -1.882932
 O         1.773312        -1.298590         0.678962
 H        -0.800016        -0.024056         0.609646
 H        -0.262429         1.078126        -0.714398
 H        -0.370037        -0.651975        -1.109697
 H         1.655287         1.922881         0.787593
 H         2.024875         0.949173         2.222970
 H         4.291558         1.046392         0.574859
 H         3.871990        -1.843695         1.045913
 H         4.027236        -1.008758        -1.662446
 H         2.545718        -1.981631        -1.599429
 H         1.386100         1.388399        -1.911724
