19
Iteration:   486
 C        -0.171734         0.210136        -0.203972
 C         1.298439         0.004740         0.210772
 C         1.961841         0.954766         1.200996
 C         3.284856         0.325002         0.547028
 C         3.180649        -1.153523         0.396460
 C         3.091026        -1.198921        -1.228111
 C         2.496811         0.246693        -0.858145
 O         2.505676         1.317503        -1.866311
 O         1.762046        -1.260198         0.739786
 H        -0.924471         0.083671         0.615520
 H        -0.334576         1.167557        -0.806155
 H        -0.560671        -0.661952        -0.915483
 H         1.897804         2.039728         0.886306
 H         1.528226         0.829916         2.201509
 H         4.412327         0.652968         0.504077
 H         3.525587        -1.923907         1.052617
 H         4.073675        -1.268717        -1.693331
 H         2.311903        -1.814279        -1.709679
 H         2.618988         0.851284        -2.688970
