19
Iteration:   895
 C        -0.092246         0.024781        -0.320030
 C         1.288171        -0.021516         0.122200
 C         2.006539         0.909767         1.204834
 C         3.232380         0.482966         0.488337
 C         3.092374        -1.147770         0.495298
 C         3.248711        -1.082475        -1.098330
 C         2.454464         0.269514        -0.857382
 O         2.507647         1.332339        -1.812151
 O         1.643976        -1.326335         0.687089
 H        -0.788885         0.308063         0.446614
 H        -0.197261         0.812608        -1.027260
 H        -0.278670        -0.865034        -0.862618
 H         1.874247         1.973952         1.179637
 H         1.963499         0.547728         2.277769
 H         4.228845         0.885760         0.464896
 H         3.593282        -1.969027         1.076266
 H         4.225927        -0.664004        -1.481163
 H         2.876695        -1.980630        -1.821018
 H         1.839364         1.168570        -2.471248
