19
Iteration:  3577
 C        -0.208477        -0.059860        -0.030559
 C         1.305103         0.045687         0.117452
 C         2.022500         0.944814         1.123489
 C         3.326273         0.471661         0.412262
 C         3.081434        -1.153745         0.468752
 C         3.257871        -1.169540        -1.120053
 C         2.534600         0.226044        -0.982487
 O         2.435145         1.427531        -1.887548
 O         1.672434        -1.294965         0.726001
 H        -0.629231        -0.326398         0.994253
 H        -0.639724         0.827756        -0.348780
 H        -0.296903        -0.801393        -0.680100
 H         1.755968         1.944248         0.870721
 H         1.857471         0.667146         2.119470
 H         4.358369         0.940259         0.586988
 H         3.528935        -1.777795         1.247526
 H         4.322769        -1.044443        -1.382105
 H         2.795654        -1.921110        -1.789667
 H         1.923412         1.252297        -2.708298
