19
Iteration:   192charge 0 multiplicity 1
 C        -0.086710         0.192280        -0.243886
 C         1.338208        -0.001262         0.208268
 C         2.018058         1.083560         1.089159
 C         3.315860         0.436309         0.492246
 C         3.052585        -1.212560         0.423580
 C         3.163946        -1.171862        -1.074154
 C         2.569403         0.204788        -0.887191
 O         2.333894         1.203006        -1.808817
 O         1.646485        -1.339383         0.654724
 H        -0.774907         0.014493         0.511425
 H        -0.355875         1.140096        -0.615235
 H        -0.373952        -0.525461        -1.033626
 H         1.838992         2.133968         0.695775
 H         1.942596         0.955522         2.161327
 H         4.452449         0.693412         0.636374
 H         3.588955        -1.992680         0.899274
 H         4.312078        -1.012749        -1.328534
 H         2.765380        -1.975602        -1.813836
 H         2.979880         1.903285        -1.549647
