19
Iteration:  2796charge 0 multiplicity 1
 C        -0.101154         0.096151        -0.320114
 C         1.353283        -0.004626         0.205516
 C         2.021866         0.959628         1.094545
 C         3.298488         0.460855         0.489399
 C         3.142625        -1.200362         0.395576
 C         3.238642        -1.115775        -1.089260
 C         2.519687         0.236739        -0.899339
 O         2.231240         1.318923        -1.836182
 O         1.716646        -1.395130         0.741169
 H        -0.997804        -0.212524         0.506361
 H        -0.210264         1.115922        -0.487390
 H        -0.157830        -0.601540        -1.251680
 H         1.837791         2.016687         0.803732
 H         1.874717         0.817332         2.168495
 H         4.281776         0.958043         0.690228
 H         3.824891        -1.770493         1.099732
 H         4.226107        -0.932341        -1.437347
 H         2.750695        -1.978928        -1.593097
 H         2.244820         2.142442        -1.304182
