19
Iteration:  1631charge 0 multiplicity 1
 C        -0.155846         0.025447        -0.374374
 C         1.281237        -0.011584         0.182484
 C         1.919100         0.910823         1.222252
 C         3.258184         0.377658         0.615333
 C         3.178902        -1.127335         0.389218
 C         3.296541        -1.078673        -1.120734
 C         2.515809         0.355874        -0.782223
 O         2.348127         1.273868        -1.849922
 O         1.710172        -1.275382         0.659198
 H        -0.958402        -0.011992         0.501211
 H        -0.193635         0.942533        -0.962306
 H        -0.228576        -0.860923        -0.927351
 H         1.927120         1.918192         0.909601
 H         1.417630         0.710617         2.191257
 H         4.125139         0.966941         0.726059
 H         3.695242        -1.857150         1.007662
 H         4.420357        -0.854207        -1.499251
 H         2.810685        -1.863649        -1.742505
 H         3.045774         1.045067        -2.536421
