19
Iteration:   734charge 0 multiplicity 1
 C        -0.081038         0.079210        -0.236830
 C         1.303224         0.107379         0.112278
 C         2.010214         1.030582         1.198186
 C         3.302437         0.351171         0.471555
 C         3.067933        -1.224301         0.383645
 C         3.299963        -1.143167        -1.082477
 C         2.526823         0.241440        -0.898006
 O         2.321642         1.288375        -1.757672
 O         1.607462        -1.304144         0.659050
 H        -0.597502         0.112504         0.825679
 H        -0.361610         1.036927        -0.654237
 H        -0.286202        -0.847851        -0.872443
 H         1.868649         2.115503         0.833557
 H         1.634949         0.902860         2.221832
 H         4.407481         0.681463         0.505978
 H         3.595374        -1.937639         1.045243
 H         4.300318        -0.804737        -1.345827
 H         3.052983        -2.021373        -1.609552
 H         2.881488         1.241961        -2.556396
