19
Iteration:  3406
 C        -0.244175        -0.034103        -0.044106
 C         1.248371        -0.041815         0.255180
 C         2.082179         0.979352         1.178053
 C         3.269406         0.457709         0.464399
 C         3.094682        -1.125896         0.444905
 C         3.234565        -1.077695        -1.085252
 C         2.492737         0.333171        -0.938512
 O         2.522689         1.339410        -1.926186
 O         1.684694        -1.309957         0.575439
 H        -0.738618        -0.442947         0.804642
 H        -0.695102         0.828838        -0.465535
 H        -0.416551        -0.896865        -0.857263
 H         2.062468         2.130766         0.897565
 H         1.864121         0.834621         2.290171
 H         4.294767         0.717135         0.416708
 H         3.466304        -1.945660         1.087916
 H         4.326265        -0.969249        -1.320748
 H         2.799574        -1.921581        -1.649280
 H         2.115847         0.849897        -2.696684
