19
Iteration:  3585charge 0 multiplicity 1
 C        -0.133675        -0.059887        -0.067474
 C         1.321082        -0.014712         0.144117
 C         2.009428         0.979385         1.130909
 C         3.306421         0.455361         0.402984
 C         3.067685        -1.147238         0.406148
 C         3.240295        -1.110392        -1.100049
 C         2.596461         0.275233        -0.986300
 O         2.414243         1.374442        -1.882582
 O         1.637309        -1.292914         0.748544
 H        -0.638188        -0.386351         0.871568
 H        -0.588933         0.926360        -0.415435
 H        -0.362989        -0.866985        -0.761643
 H         1.907384         2.029785         1.044985
 H         1.860319         0.753775         2.199065
 H         4.348214         0.827473         0.683639
 H         3.699512        -1.744097         1.086245
 H         4.270079        -1.157124        -1.346956
 H         2.617931        -1.825083        -1.655210
 H         1.699406         1.146802        -2.535586
