19
Iteration:  4416
 C        -0.167282         0.040361        -0.100599
 C         1.354146        -0.038950         0.135282
 C         2.039952         1.081441         1.125124
 C         3.230959         0.467672         0.501827
 C         3.142973        -1.189910         0.407492
 C         3.246226        -1.097278        -1.141511
 C         2.500424         0.266522        -0.900925
 O         2.388101         1.216010        -1.771022
 O         1.708943        -1.327866         0.644912
 H        -0.664038        -0.314351         0.799010
 H        -0.423338         0.961383        -0.540008
 H        -0.310397        -0.603445        -0.882470
 H         1.949324         2.003628         0.531520
 H         1.845272         1.309158         2.135815
 H         4.262426         0.887039         0.526026
 H         3.673306        -1.767498         1.144027
 H         4.219294        -1.031554        -1.664372
 H         2.660955        -1.721830        -1.854647
 H         1.596344         1.239142        -2.298215
