19
Iteration:   253
 C        -0.129434         0.066255        -0.168176
 C         1.298541         0.092087         0.164286
 C         2.093555         0.982248         1.194402
 C         3.323045         0.419328         0.568834
 C         3.014425        -1.242295         0.454952
 C         3.127144        -1.044534        -1.084843
 C         2.659736         0.293334        -0.870224
 O         2.503542         1.173696        -1.940055
 O         1.594839        -1.262972         0.561385
 H        -0.703578        -0.220523         0.824020
 H        -0.454192         1.062748        -0.584089
 H        -0.251730        -0.776545        -0.877791
 H         2.188214         2.049236         1.104815
 H         1.866665         0.795801         2.277101
 H         4.254196         0.839250         0.624326
 H         3.407776        -2.163136         1.009943
 H         4.098966        -1.140068        -1.471749
 H         2.372247        -1.569727        -1.615414
 H         1.537319         1.290496        -2.156502
