19
Iteration:  3546
 C        -0.246849        -0.002205         0.035460
 C         1.253727        -0.030933         0.172768
 C         1.967972         1.051470         1.093445
 C         3.223544         0.530349         0.457717
 C         3.191792        -1.082085         0.377092
 C         3.215094        -1.046570        -1.221510
 C         2.510242         0.181762        -0.892072
 O         2.557670         1.221668        -1.756522
 O         1.709048        -1.362420         0.633035
 H        -0.683041        -0.055134         1.097462
 H        -0.482641         0.911691        -0.430188
 H        -0.663036        -0.762305        -0.765790
 H         1.670924         2.012942         0.536486
 H         1.700683         0.964010         2.150304
 H         4.225406         0.932760         0.424884
 H         3.819575        -1.756137         0.973024
 H         4.256395        -0.984149        -1.651468
 H         2.572132        -1.782225        -1.727686
 H         2.462525         1.081761        -2.706834
