19
Iteration:   223
 C        -0.134903         0.202727        -0.253540
 C         1.262962         0.046576         0.187414
 C         1.996464         0.944052         1.179575
 C         3.244689         0.341377         0.473670
 C         3.121506        -1.117665         0.436518
 C         3.106059        -1.142700        -1.132849
 C         2.513968         0.206259        -0.942169
 O         2.534870         1.213764        -1.890813
 O         1.727001        -1.294466         0.761738
 H        -0.923679         0.001304         0.507896
 H        -0.300959         1.192272        -0.653398
 H        -0.343667        -0.552428        -1.056772
 H         2.026262         2.039659         1.096972
 H         1.866825         0.524630         2.160571
 H         4.317596         0.731063         0.565453
 H         3.737904        -1.825012         0.989648
 H         4.101612        -1.076733        -1.491504
 H         2.560287        -1.931731        -1.622230
 H         1.970582         1.950760        -1.622616
