19
Iteration:  2711charge 0 multiplicity 1
 C        -0.270669         0.032353        -0.158045
 C         1.267942         0.000738         0.113186
 C         1.890165         0.941325         1.193659
 C         3.249745         0.462467         0.499328
 C         3.194554        -1.155393         0.312084
 C         3.214531        -1.062782        -1.117808
 C         2.583980         0.250085        -0.885111
 O         2.536550         1.289503        -1.816315
 O         1.800336        -1.305346         0.672564
 H        -0.779764        -0.082122         0.842898
 H        -0.725188         0.919058        -0.616960
 H        -0.736087        -0.803460        -0.655515
 H         1.585935         1.950714         0.966043
 H         1.684074         0.598386         2.236365
 H         4.190387         0.980356         0.619217
 H         3.728779        -1.901706         0.970418
 H         4.330098        -0.948908        -1.333501
 H         2.635595        -1.904272        -1.730244
 H         1.675796         1.357220        -2.295095
