19
Iteration:  4553charge 0 multiplicity 1
 C        -0.238599         0.046173        -0.013611
 C         1.210501        -0.023888         0.276228
 C         1.992448         0.973252         1.129939
 C         3.194933         0.426251         0.357646
 C         3.215516        -1.140173         0.379484
 C         3.325182        -1.093894        -1.076403
 C         2.489877         0.285343        -0.935129
 O         2.541275         1.312744        -1.851520
 O         1.680098        -1.345365         0.598596
 H        -0.600946        -0.121798         1.000053
 H        -0.659129         0.991094        -0.350023
 H        -0.690791        -0.835139        -0.529985
 H         1.722665         1.983644         0.727368
 H         1.968054         0.841459         2.229598
 H         4.083865         1.051424         0.357046
 H         3.805169        -1.745737         1.175721
 H         4.294985        -1.111044        -1.531290
 H         2.839136        -1.902151        -1.627724
 H         1.949889         1.228972        -2.631031
