19
Iteration:   187
 C        -0.073650         0.162138        -0.216805
 C         1.373048         0.066031         0.164725
 C         2.018384         1.072321         1.085178
 C         3.281314         0.393719         0.511081
 C         3.030136        -1.202330         0.413988
 C         3.217897        -1.172116        -1.104203
 C         2.563409         0.187700        -0.879607
 O         2.308759         1.191446        -1.791133
 O         1.647829        -1.310872         0.643407
 H        -0.858305         0.011613         0.639175
 H        -0.303787         1.192657        -0.658405
 H        -0.222556        -0.561616        -1.030785
 H         2.006787         2.115084         0.840035
 H         1.747215         1.029498         2.173852
 H         4.269265         0.685427         0.648614
 H         3.680551        -1.955031         0.978266
 H         4.211373        -1.097582        -1.355255
 H         2.694334        -1.846390        -1.704972
 H         3.061403         1.775021        -1.667132
