19
Iteration:  4263charge 0 multiplicity 1
 C        -0.065187         0.063934        -0.267082
 C         1.341889        -0.050827         0.214633
 C         1.951138         1.003833         1.180361
 C         3.273928         0.444586         0.460021
 C         3.203463        -1.231875         0.337795
 C         3.117266        -1.030589        -1.163370
 C         2.502644         0.283309        -0.822855
 O         2.356936         1.196657        -1.927241
 O         1.747768        -1.286592         0.817632
 H        -0.718218        -0.244721         0.668783
 H        -0.258842         1.159146        -0.394807
 H        -0.213037        -0.730863        -1.010273
 H         1.852679         2.067140         0.882635
 H         1.780072         0.833637         2.206562
 H         4.278743         0.947461         0.616439
 H         4.064007        -1.799632         0.845937
 H         4.131326        -0.953592        -1.548231
 H         2.531767        -1.778831        -1.750225
 H         1.504284         1.679824        -1.843170
