19
Iteration:  2752
 C        -0.247417         0.005216        -0.068346
 C         1.236187        -0.007598         0.173798
 C         1.993262         0.974712         1.208664
 C         3.264291         0.473468         0.537526
 C         3.107768        -1.145908         0.421675
 C         3.254423        -1.051580        -1.088855
 C         2.517422         0.322441        -0.928589
 O         2.456627         1.300137        -1.931565
 O         1.706079        -1.358488         0.561033
 H        -0.859689        -0.543333         0.859609
 H        -0.672348         0.908420        -0.325274
 H        -0.263365        -0.914185        -0.774680
 H         1.857975         2.031392         0.898346
 H         1.842227         0.763804         2.258910
 H         4.323910         0.864167         0.567578
 H         3.782650        -1.970703         0.761463
 H         4.293136        -0.991836        -1.371222
 H         2.729941        -1.929916        -1.545188
 H         3.371392         1.407291        -2.284048
