19
Iteration:  3155
 C         0.017395         0.114876        -0.301468
 C         1.351012         0.043589         0.260172
 C         2.053178         0.963594         1.230368
 C         3.327011         0.395897         0.542503
 C         3.147591        -1.170042         0.387793
 C         3.071511        -1.042549        -1.126967
 C         2.463911         0.294938        -0.820633
 O         2.287457         1.111273        -1.894267
 O         1.723596        -1.293908         0.638485
 H        -0.721497        -0.046786         0.426128
 H        -0.216101         1.053072        -0.752012
 H        -0.093236        -0.893889        -0.975673
 H         1.859520         1.952145         0.849666
 H         1.867922         0.939528         2.226097
 H         4.389440         0.761932         0.500393
 H         3.807373        -1.832729         0.914990
 H         3.958920        -0.845790        -1.741029
 H         2.390401        -1.788430        -1.610050
 H         1.927891         1.946690        -1.612301
