19
Iteration:  4238charge 0 multiplicity 1
 C        -0.205640         0.026718        -0.094826
 C         1.265899        -0.022777         0.177878
 C         2.042151         0.933572         1.163295
 C         3.326325         0.453384         0.472891
 C         3.127014        -1.095924         0.453933
 C         3.253772        -1.060228        -1.114758
 C         2.512196         0.266714        -0.917469
 O         2.355583         1.192671        -1.986056
 O         1.717347        -1.270906         0.616873
 H        -0.617099        -0.285174         0.833320
 H        -0.597430         0.954233        -0.318308
 H        -0.390106        -0.903334        -0.718034
 H         1.949201         2.004446         1.030183
 H         1.982670         0.601904         2.231038
 H         4.237529         0.933874         0.746485
 H         3.788959        -1.712594         1.150291
 H         4.331086        -1.031580        -1.309308
 H         2.655505        -1.855058        -1.646204
 H         2.157623         2.059672        -1.605886
