19
Iteration:  3071
 C        -0.313703         0.003876        -0.026270
 C         1.255135         0.023384         0.144666
 C         1.980171         0.963606         1.106230
 C         3.309516         0.421551         0.545422
 C         3.167291        -1.131316         0.408620
 C         3.169346        -1.070317        -1.154037
 C         2.581113         0.282367        -0.868624
 O         2.469935         1.241618        -1.895723
 O         1.735083        -1.286582         0.602576
 H        -0.719985        -0.232061         1.005689
 H        -0.727703         0.900201        -0.446403
 H        -0.604666        -0.724486        -0.707980
 H         1.950471         2.097367         0.961397
 H         1.651379         0.692889         2.222816
 H         4.202295         0.915362         0.813544
 H         3.854523        -1.767644         1.006014
 H         4.080436        -0.926585        -1.748341
 H         2.480241        -1.726418        -1.651636
 H         3.293960         1.108652        -2.447952
