19
Iteration:  4348
 C        -0.239630         0.051247        -0.036398
 C         1.280479        -0.014103         0.188703
 C         2.000964         0.973138         1.155130
 C         3.272298         0.472545         0.516229
 C         3.135499        -1.143031         0.356020
 C         3.154635        -1.018272        -1.179556
 C         2.476265         0.211792        -0.848837
 O         2.490328         1.249473        -1.865513
 O         1.814593        -1.335727         0.646879
 H        -0.867530        -0.010490         0.853090
 H        -0.387826         0.834240        -0.676768
 H        -0.532716        -0.676546        -0.834235
 H         1.777853         1.902943         0.557186
 H         1.789018         1.120882         2.232292
 H         4.207508         1.111158         0.541209
 H         3.829075        -1.843086         1.039754
 H         4.142720        -0.828947        -1.613870
 H         2.500582        -1.912412        -1.509564
 H         2.231034         0.816331        -2.708525
