19
Iteration:   676charge 0 multiplicity 1
 C        -0.104477         0.156884        -0.262001
 C         1.303637         0.040702         0.212288
 C         2.002737         0.913252         1.243283
 C         3.228176         0.441712         0.441796
 C         3.090940        -1.188316         0.411138
 C         3.134360        -1.181894        -1.185484
 C         2.502797         0.237110        -0.911864
 O         2.541366         1.233048        -1.847561
 O         1.724251        -1.256138         0.732181
 H        -0.842018         0.144861         0.576101
 H        -0.100374         1.072776        -0.975834
 H        -0.346940        -0.693456        -0.910369
 H         1.662342         1.878624         1.156012
 H         1.975679         0.661985         2.280144
 H         4.109463         0.989376         0.565257
 H         3.575779        -1.926731         1.071395
 H         4.044302        -0.939636        -1.564818
 H         2.694369        -1.926017        -1.706535
 H         1.615597         1.606500        -1.841124
