19
Iteration:  2749
 C        -0.245458        -0.013356        -0.061715
 C         1.259348        -0.041450         0.199486
 C         1.981068         0.964851         1.218121
 C         3.251254         0.470108         0.521382
 C         3.110468        -1.154817         0.421113
 C         3.223789        -1.042042        -1.073522
 C         2.504939         0.320325        -0.935705
 O         2.480519         1.328364        -1.947792
 O         1.713248        -1.352099         0.552673
 H        -0.781251        -0.437309         0.802227
 H        -0.702445         0.993700        -0.352934
 H        -0.303075        -0.885557        -0.780275
 H         1.836037         2.052477         0.919473
 H         1.863262         0.823757         2.298381
 H         4.316180         0.843162         0.512031
 H         3.740936        -1.919229         0.855940
 H         4.269654        -0.998081        -1.313235
 H         2.820889        -1.883136        -1.522843
 H         3.335558         1.285775        -2.379654
