19
Iteration:  3597charge 0 multiplicity 1
 C        -0.126878        -0.046365        -0.198759
 C         1.314125        -0.019144         0.203962
 C         2.049876         1.019638         1.138048
 C         3.232331         0.430247         0.492502
 C         3.115309        -1.120497         0.396839
 C         3.130051        -1.062193        -1.151524
 C         2.613565         0.326710        -0.859599
 O         2.391909         1.239760        -1.859484
 O         1.727163        -1.274353         0.705258
 H        -0.687086        -0.228329         0.779148
 H        -0.413867         0.987629        -0.481261
 H        -0.402420        -0.715602        -0.919059
 H         1.871793         1.992153         0.820411
 H         1.948450         0.792923         2.175379
 H         4.327455         0.774711         0.512462
 H         3.783679        -1.878432         0.820389
 H         4.135608        -1.061222        -1.501117
 H         2.591002        -1.883109        -1.634892
 H         1.531511         0.971944        -2.166297
