19
Iteration:  4502
 C        -0.148103         0.020019        -0.103886
 C         1.306909        -0.028034         0.152486
 C         1.994118         1.056441         1.145776
 C         3.330435         0.414936         0.583763
 C         3.108568        -1.137106         0.405455
 C         3.148171        -1.079883        -1.175389
 C         2.586728         0.299869        -0.895547
 O         2.373506         1.270857        -1.874124
 O         1.756376        -1.342976         0.672054
 H        -0.864039        -0.161001         0.719724
 H        -0.385864         0.986919        -0.519720
 H        -0.438562        -0.859821        -0.860323
 H         1.826107         2.130982         0.807273
 H         1.724872         0.968666         2.212450
 H         4.388347         0.740066         0.719218
 H         3.731501        -1.851116         0.914623
 H         4.148589        -0.924339        -1.660029
 H         2.658143        -1.976270        -1.655308
 H         1.743947         1.081583        -2.599904
