19
Iteration:  1272charge 0 multiplicity 1
 C        -0.225956        -0.001551        -0.244357
 C         1.289442         0.058960         0.037004
 C         1.886248         1.019270         1.141434
 C         3.244058         0.415075         0.539008
 C         3.088072        -1.177843         0.448985
 C         3.425425        -1.132175        -1.111325
 C         2.590513         0.204140        -0.907698
 O         2.345564         1.319614        -1.755695
 O         1.706519        -1.307131         0.635443
 H        -0.718729         0.157759         0.707110
 H        -0.555692         0.882868        -0.817262
 H        -0.393474        -0.943649        -0.621695
 H         1.685046         2.125283         1.048134
 H         1.654411         0.711649         2.198045
 H         4.291709         0.680472         0.900102
 H         3.551427        -1.772148         1.282759
 H         4.520741        -0.744520        -1.307141
 H         2.954499        -1.884910        -1.794720
 H         3.123885         1.490849        -2.318350
