19
Iteration:  4341
 C        -0.240451         0.038226        -0.131263
 C         1.292883        -0.003480         0.187317
 C         2.022927         0.991593         1.125708
 C         3.273515         0.426486         0.535776
 C         3.155186        -1.155131         0.407391
 C         3.204639        -1.014960        -1.178364
 C         2.463122         0.244335        -0.862723
 O         2.427842         1.262700        -1.834208
 O         1.785994        -1.334860         0.706045
 H        -0.652749        -0.056674         0.948190
 H        -0.419167         1.083156        -0.622636
 H        -0.508306        -0.785734        -0.750319
 H         1.932625         1.969343         0.645200
 H         1.732801         1.140653         2.135433
 H         4.201751         0.958523         0.275471
 H         3.781315        -1.953774         0.691164
 H         4.130465        -1.007081        -1.751392
 H         2.656817        -1.833396        -1.619454
 H         2.191905         0.849780        -2.703421
