19
Iteration:  2080
 C        -0.225675        -0.009814        -0.144249
 C         1.239439        -0.062974         0.151386
 C         1.903026         0.909611         1.237241
 C         3.160914         0.504078         0.496669
 C         3.193464        -1.090874         0.454258
 C         3.189064        -1.046309        -1.146850
 C         2.565374         0.327651        -0.894897
 O         2.633315         1.352202        -1.933396
 O         1.666035        -1.375831         0.684941
 H        -0.773739        -0.456869         0.729525
 H        -0.547166         1.056062        -0.477203
 H        -0.401996        -0.726935        -0.868367
 H         1.616395         2.005258         1.042184
 H         1.917524         0.654389         2.300594
 H         4.210015         0.905049         0.567613
 H         3.733483        -1.829439         0.992336
 H         4.264604        -0.895011        -1.612667
 H         2.625191        -1.938912        -1.598477
 H         2.788058         0.769610        -2.748621
