19
Iteration:   351
 C        -0.123673         0.031237        -0.296061
 C         1.353829         0.106721         0.136231
 C         2.173879         0.935786         1.219742
 C         3.349015         0.363465         0.577785
 C         3.031866        -1.160696         0.407990
 C         3.157063        -1.039808        -1.248893
 C         2.520615         0.254494        -0.843835
 O         2.469816         1.178772        -1.810982
 O         1.530510        -1.193852         0.710299
 H        -0.668861         0.099287         0.702217
 H        -0.424232         0.892166        -0.867855
 H        -0.275370        -0.881419        -0.844019
 H         2.061445         1.986949         1.230436
 H         1.929423         0.803545         2.309586
 H         4.246999         0.735200         0.609473
 H         3.440515        -2.049246         0.959898
 H         4.315046        -0.906203        -1.398339
 H         2.660179        -1.829260        -1.915814
 H         1.686552         1.035158        -2.413947
