19
Iteration:  3470charge 0 multiplicity 1
 C        -0.003134         0.107028        -0.338770
 C         1.343446        -0.043178         0.194733
 C         2.073339         1.032571         1.159184
 C         3.349298         0.409171         0.538716
 C         3.153971        -1.131416         0.455481
 C         3.162194        -1.067132        -1.151580
 C         2.516513         0.214691        -0.858650
 O         2.206670         1.278963        -1.834678
 O         1.710577        -1.373233         0.722582
 H        -0.800962        -0.241165         0.434667
 H        -0.228547         1.063026        -0.767120
 H        -0.112506        -0.680500        -1.260954
 H         1.917122         2.087778         0.749403
 H         1.912443         1.124987         2.257702
 H         4.330698         0.872078         0.627837
 H         3.576583        -1.923875         1.054021
 H         4.207162        -0.947560        -1.504538
 H         2.667357        -1.951811        -1.590939
 H         1.235858         1.376353        -1.997279
