19
Iteration:   297charge 0 multiplicity 1
 C        -0.151907         0.268979        -0.183106
 C         1.310827         0.022663         0.080967
 C         1.971256         0.968002         1.031121
 C         3.238169         0.386448         0.367842
 C         3.116639        -1.188588         0.438189
 C         3.170455        -1.170784        -1.126596
 C         2.526476         0.159338        -0.879488
 O         2.509559         1.257538        -1.635605
 O         1.705751        -1.276911         0.711908
 H        -0.793788        -0.000752         0.788446
 H        -0.266095         1.353430        -0.434808
 H        -0.632962        -0.386266        -0.963159
 H         1.712444         2.012498         0.947906
 H         1.870849         0.554983         2.084312
 H         4.205640         0.752968         0.303307
 H         3.767572        -1.883306         1.095492
 H         4.247135        -1.013430        -1.347768
 H         2.668710        -1.942541        -1.701067
 H         2.124271         1.044617        -2.540858
