19
Iteration:  4979
 C        -0.070824         0.084281        -0.202262
 C         1.325068         0.000320         0.186793
 C         2.008398         0.959345         1.165234
 C         3.337041         0.426258         0.480571
 C         3.257670        -1.119038         0.438347
 C         3.170115        -1.089836        -1.061186
 C         2.462802         0.269388        -0.872941
 O         2.277229         1.183221        -1.964133
 O         1.716275        -1.287322         0.733501
 H        -0.769386         0.006487         0.618539
 H        -0.208245         1.073910        -0.644984
 H        -0.342742        -0.630621        -1.085520
 H         1.853231         2.014152         0.829790
 H         1.576883         0.771951         2.151660
 H         4.413969         0.654182         0.568459
 H         3.913289        -1.800212         0.950476
 H         4.195855        -0.996580        -1.399855
 H         2.741970        -1.837866        -1.803381
 H         1.375377         1.572904        -1.914739
