19
Iteration:  3172charge 0 multiplicity 1
 C        -0.134711         0.064385        -0.186432
 C         1.322088        -0.034187         0.206619
 C         2.071427         0.948828         1.238914
 C         3.307542         0.481011         0.447994
 C         3.084903        -1.163568         0.398284
 C         3.122384        -1.072862        -1.203371
 C         2.567681         0.310233        -0.881688
 O         2.419055         1.220867        -1.986784
 O         1.696527        -1.352857         0.776318
 H        -0.921343         0.059201         0.648400
 H        -0.151491         1.056869        -0.748138
 H        -0.443310        -0.616739        -0.869389
 H         1.753861         2.061596         1.207938
 H         1.991809         0.595497         2.391702
 H         4.250518         0.977049         0.713986
 H         3.711795        -1.927738         0.893686
 H         4.207635        -1.070003        -1.373999
 H         2.458141        -1.770126        -1.732577
 H         1.729785         1.868191        -1.820030
