19
Iteration:  3563charge 0 multiplicity 1
 C        -0.275277        -0.034561         0.013113
 C         1.241866         0.005407         0.126797
 C         2.000847         0.985948         1.062750
 C         3.239712         0.396195         0.400942
 C         3.173031        -1.131664         0.458928
 C         3.262878        -1.177428        -1.112054
 C         2.442467         0.250114        -0.923601
 O         2.511680         1.375819        -1.798389
 O         1.755295        -1.242925         0.615461
 H        -0.698187        -0.257342         0.994919
 H        -0.753571         0.954610        -0.334765
 H        -0.680346        -0.874400        -0.555145
 H         1.931708         2.044830         0.904221
 H         1.875526         0.865135         2.155702
 H         4.233793         0.938123         0.283354
 H         3.781487        -1.823159         1.064737
 H         4.202378        -0.818446        -1.464565
 H         2.970392        -2.130824        -1.583137
 H         2.369116         0.988493        -2.668971
