19
Iteration:  4442
 C        -0.096092         0.074787        -0.299044
 C         1.353896        -0.043510         0.157176
 C         2.002365         0.977083         1.100006
 C         3.370081         0.405790         0.457543
 C         3.214260        -1.148765         0.399828
 C         3.162844        -1.145944        -1.079504
 C         2.513051         0.291192        -0.914739
 O         2.265980         1.322114        -1.744722
 O         1.724709        -1.303470         0.801794
 H        -0.852127        -0.294437         0.427014
 H        -0.277511         1.115466        -0.740050
 H        -0.134548        -0.516318        -1.260730
 H         1.855887         1.985776         0.750950
 H         1.720534         0.864026         2.176236
 H         4.343387         0.865418         0.315528
 H         3.793672        -1.846455         1.024173
 H         4.098028        -1.152628        -1.667457
 H         2.485062        -1.934286        -1.427649
 H         1.403415         1.224323        -2.161218
