19
Iteration:  1893
 C        -0.169888        -0.000603        -0.179360
 C         1.257264        -0.057851         0.088429
 C         1.890518         0.869231         1.135166
 C         3.230198         0.534262         0.510792
 C         3.199911        -1.185447         0.433610
 C         3.211657        -1.057320        -1.031887
 C         2.549479         0.309614        -0.875201
 O         2.505217         1.333725        -1.838835
 O         1.679084        -1.338699         0.625863
 H        -0.834422        -0.352426         0.672858
 H        -0.427134         1.111805        -0.382392
 H        -0.429798        -0.575144        -0.947917
 H         1.750851         1.971621         0.897958
 H         1.511096         0.699735         2.177546
 H         4.121834         1.127974         0.510114
 H         3.715828        -1.772761         1.272069
 H         4.206791        -0.858916        -1.472779
 H         2.733319        -1.868726        -1.609658
 H         3.199869         1.187683        -2.496062
