19
Iteration:  1619charge 0 multiplicity 1
 C        -0.132104         0.046288        -0.307279
 C         1.270289        -0.034192         0.126866
 C         1.848087         0.961845         1.146060
 C         3.210833         0.470589         0.579939
 C         3.158002        -1.131154         0.395198
 C         3.269002        -1.017627        -1.128745
 C         2.564092         0.208030        -0.847885
 O         2.404888         1.259299        -1.732186
 O         1.741729        -1.341799         0.640156
 H        -0.835770         0.174866         0.638726
 H        -0.331388         0.933420        -0.843207
 H        -0.611106        -0.693022        -0.968950
 H         1.668013         1.962414         0.837928
 H         1.738718         0.934534         2.257105
 H         4.230660         0.813253         0.737330
 H         3.825333        -1.761732         0.962975
 H         4.391620        -0.834609        -1.355308
 H         2.843803        -1.849257        -1.701114
 H         2.999365         1.126590        -2.464604
