19
Iteration:  1970
 C        -0.097805         0.036493        -0.425939
 C         1.258401         0.006120         0.228909
 C         1.916133         0.823391         1.260193
 C         3.255707         0.515099         0.555123
 C         3.243714        -1.089546         0.428781
 C         3.204379        -1.096893        -1.185097
 C         2.517690         0.284455        -0.822120
 O         2.333224         1.245717        -1.864424
 O         1.728348        -1.298972         0.727622
 H        -0.936204         0.070590         0.308622
 H        -0.171305         1.063166        -0.973998
 H        -0.151989        -0.693101        -1.113945
 H         1.665876         1.947112         1.138667
 H         1.736337         0.622318         2.324602
 H         4.231828         1.017658         0.607331
 H         3.765374        -1.882720         1.044094
 H         4.133133        -1.142265        -1.868558
 H         2.449610        -1.863166        -1.548388
 H         3.235559         1.496492        -2.008852
