19
Iteration:  2084
 C        -0.184433        -0.024561        -0.146098
 C         1.246216        -0.031270         0.157594
 C         1.887718         0.880757         1.216284
 C         3.200216         0.498565         0.471691
 C         3.169862        -1.088063         0.478060
 C         3.178182        -1.033225        -1.133684
 C         2.552050         0.303043        -0.907639
 O         2.614193         1.331107        -1.922531
 O         1.661604        -1.346534         0.668750
 H        -0.858586        -0.393827         0.771541
 H        -0.510867         0.912793        -0.406133
 H        -0.498610        -0.725620        -0.968380
 H         1.641117         1.967164         1.164465
 H         1.883188         0.636023         2.321357
 H         4.240005         0.824978         0.615339
 H         3.888417        -1.744601         1.035259
 H         4.102838        -0.785539        -1.603866
 H         2.643115        -1.820277        -1.639353
 H         2.987222         0.853185        -2.672029
