19
Iteration:  1532
 C        -0.108192        -0.021149        -0.438297
 C         1.263295         0.014293         0.215701
 C         1.915781         0.952222         1.265315
 C         3.260495         0.458745         0.626320
 C         3.122968        -1.141224         0.461464
 C         3.186097        -1.127910        -1.120411
 C         2.525619         0.290444        -0.877383
 O         2.360760         1.304765        -1.954944
 O         1.754577        -1.339248         0.702931
 H        -0.955234        -0.333080         0.290591
 H        -0.181282         0.992981        -0.653776
 H         0.074139        -0.536074        -1.328658
 H         1.836262         1.999345         1.067761
 H         1.897488         0.672254         2.337016
 H         4.219804         0.979301         0.833138
 H         3.799365        -1.660404         1.130468
 H         4.321474        -1.021901        -1.577544
 H         2.429867        -1.833376        -1.580695
 H         3.237716         1.718934        -1.886464
