19
Iteration:   590
 C        -0.218721         0.204121        -0.230606
 C         1.278683         0.004899         0.191296
 C         2.036154         0.910822         1.270356
 C         3.330911         0.371143         0.448422
 C         3.222705        -1.138373         0.421485
 C         3.123186        -1.169025        -1.098408
 C         2.448325         0.230427        -0.909093
 O         2.501262         1.215934        -1.962880
 O         1.674303        -1.286746         0.709627
 H        -1.056001         0.045474         0.530285
 H        -0.381222         1.316339        -0.487381
 H        -0.445924        -0.337276        -1.141484
 H         1.831963         1.989401         1.137872
 H         1.944443         0.569399         2.323045
 H         4.223385         0.883224         0.360964
 H         3.759423        -1.911315         0.994338
 H         4.121535        -0.995576        -1.541957
 H         2.605272        -1.986158        -1.520202
 H         2.463148         2.117065        -1.536176
