19
Iteration:  4837
 C        -0.161168         0.066758        -0.111275
 C         1.291735         0.007042         0.182321
 C         2.003803         1.007481         1.095434
 C         3.240184         0.399123         0.441234
 C         3.149439        -1.090590         0.424811
 C         3.274641        -1.118837        -1.087522
 C         2.529683         0.272694        -0.881965
 O         2.337577         1.199737        -1.919340
 O         1.764118        -1.313410         0.695985
 H        -0.628574        -0.113872         0.860549
 H        -0.482097         1.043883        -0.465222
 H        -0.580468        -0.779851        -0.807941
 H         2.032647         2.047313         0.843779
 H         1.724253         0.823027         2.097160
 H         4.274166         0.768614         0.387051
 H         3.778475        -1.810710         0.954171
 H         4.309420        -0.941411        -1.380006
 H         2.953899        -2.027301        -1.692644
 H         1.580953         1.816231        -1.789734
