19
Iteration:   696
 C        -0.116000         0.147360        -0.289118
 C         1.328413        -0.031766         0.183239
 C         2.006989         0.928218         1.214241
 C         3.339852         0.409287         0.495911
 C         3.124081        -1.142149         0.417829
 C         3.110622        -1.074053        -1.071333
 C         2.516075         0.330079        -0.843183
 O         2.442586         1.225020        -1.989693
 O         1.666987        -1.391091         0.723596
 H        -0.781845         0.257869         0.508477
 H        -0.122731         1.032167        -0.976879
 H        -0.570612        -0.630854        -0.879788
 H         1.939489         1.950657         1.038322
 H         1.709725         0.707268         2.244313
 H         4.340636         0.761828         0.666802
 H         3.771206        -1.749894         1.054389
 H         4.070127        -1.175756        -1.568947
 H         2.387156        -1.831804        -1.473414
 H         2.312357         2.058465        -1.458506
