19
Iteration:  2997charge 0 multiplicity 1
 C        -0.002617         0.109713        -0.273408
 C         1.343348         0.014603         0.119558
 C         1.927236         0.999203         1.117142
 C         3.259608         0.443983         0.507263
 C         3.168604        -1.154363         0.477018
 C         3.139674        -1.104301        -1.180568
 C         2.522126         0.236414        -0.875342
 O         2.320951         1.280048        -1.792463
 O         1.769075        -1.418760         0.736518
 H        -0.701826         0.125826         0.729435
 H        -0.221001         1.132707        -0.784219
 H        -0.150368        -0.548823        -1.061247
 H         1.848300         2.071876         0.878429
 H         1.705570         0.710112         2.170306
 H         4.213443         0.925883         0.466009
 H         3.917350        -1.774474         1.009683
 H         4.131843        -1.251907        -1.733245
 H         2.550815        -1.926559        -1.623171
 H         1.500344         1.739888        -1.660073
