19
Iteration:  2276
 C        -0.226506         0.024969        -0.258315
 C         1.300179        -0.051762         0.138805
 C         1.868737         0.944421         1.129279
 C         3.267038         0.460306         0.532683
 C         3.191953        -1.214805         0.466589
 C         3.257397        -1.076886        -1.115264
 C         2.538616         0.292327        -0.871149
 O         2.495784         1.340872        -1.806005
 O         1.763296        -1.326111         0.663455
 H        -0.817779        -0.344160         0.578562
 H        -0.597460         1.154684        -0.377234
 H        -0.395503        -0.505473        -1.219173
 H         1.758680         2.005666         0.800049
 H         1.453509         0.948532         2.117500
 H         4.313161         0.888846         0.603347
 H         3.758327        -1.850822         1.102947
 H         4.255147        -1.042876        -1.565691
 H         2.703182        -1.888022        -1.598681
 H         1.593051         1.388203        -2.235594
