19
Iteration:  1089charge 0 multiplicity 1
 C        -0.223374        -0.018533        -0.263168
 C         1.249364        -0.038579         0.091567
 C         1.927858         0.967504         1.085860
 C         3.314756         0.386406         0.650534
 C         3.127696        -1.155741         0.463339
 C         3.211896        -1.024748        -1.079502
 C         2.579499         0.267304        -0.848873
 O         2.452486         1.296862        -1.892414
 O         1.728691        -1.313594         0.645233
 H        -0.811885         0.149646         0.664048
 H        -0.294025         0.958525        -0.981733
 H        -0.660884        -0.962468        -0.618827
 H         1.915091         1.920396         0.672580
 H         1.484832         0.794601         2.082882
 H         4.297740         0.695614         0.741458
 H         3.693891        -1.919449         1.063699
 H         4.205146        -0.866009        -1.374462
 H         2.737817        -1.718019        -1.664201
 H         2.809007         2.141560        -1.637660
