19
Iteration:  3553charge 0 multiplicity 1
 C        -0.286809        -0.036661         0.033505
 C         1.231869        -0.030595         0.131865
 C         1.956397         1.062528         1.102046
 C         3.231488         0.416670         0.378247
 C         3.225213        -1.088467         0.328798
 C         3.260249        -1.082882        -1.102316
 C         2.454031         0.213264        -0.915146
 O         2.544063         1.272094        -1.741969
 O         1.725364        -1.295374         0.615162
 H        -0.675985        -0.104080         1.061890
 H        -0.545040         0.976824        -0.368808
 H        -0.622682        -0.742597        -0.617473
 H         1.988750         2.045545         0.732390
 H         1.790398         0.924794         2.159244
 H         4.263140         0.916807         0.432167
 H         3.732143        -1.692878         1.072445
 H         4.225732        -0.971839        -1.517455
 H         2.698485        -1.907365        -1.563021
 H         2.494351         1.016093        -2.653200
