19
Iteration:  2917
 C        -0.252394         0.081549        -0.092550
 C         1.252930        -0.057198         0.098082
 C         1.958288         0.864222         1.128757
 C         3.266704         0.481594         0.513057
 C         3.137786        -1.160853         0.462099
 C         3.200920        -1.062664        -1.132047
 C         2.581356         0.327703        -0.952684
 O         2.487723         1.300686        -1.963365
 O         1.769944        -1.383369         0.706376
 H        -0.632918        -0.345625         0.888897
 H        -0.504807         1.076821        -0.117693
 H        -0.652800        -0.666084        -0.772291
 H         1.569174         1.842399         0.750589
 H         1.643326         0.723070         2.224352
 H         4.253022         0.872427         0.625716
 H         3.815826        -1.711893         1.095154
 H         4.152375        -0.966911        -1.550471
 H         2.573833        -1.790223        -1.655740
 H         2.447277         2.126009        -1.490810
