19
Iteration:  2703
 C        -0.259970        -0.017636        -0.183093
 C         1.268000         0.013052         0.106099
 C         1.917120         0.954245         1.169904
 C         3.274991         0.439067         0.503811
 C         3.186137        -1.188613         0.410228
 C         3.248612        -1.155574        -1.119376
 C         2.537450         0.302411        -0.849145
 O         2.478714         1.318521        -1.824363
 O         1.794574        -1.283864         0.624068
 H        -0.694948         0.062623         0.726697
 H        -0.454784         1.090280        -0.615323
 H        -0.653527        -0.841336        -0.730012
 H         1.704567         1.996263         0.890702
 H         1.666930         0.733484         2.251477
 H         4.194976         0.963378         0.628147
 H         3.839398        -1.897420         0.936381
 H         4.238553        -0.916580        -1.531658
 H         2.731586        -1.873773        -1.735659
 H         1.524817         1.498605        -1.886431
