19
Iteration:  3466charge 0 multiplicity 1
 C        -0.012651         0.100436        -0.361214
 C         1.341672        -0.054604         0.186010
 C         2.071161         1.017620         1.130882
 C         3.316771         0.401331         0.546513
 C         3.162080        -1.142326         0.463825
 C         3.162938        -1.102029        -1.170112
 C         2.520957         0.266286        -0.852116
 O         2.206607         1.295692        -1.852611
 O         1.736064        -1.377631         0.760984
 H        -0.774701        -0.177739         0.418142
 H        -0.257559         1.163595        -0.639438
 H        -0.159891        -0.542938        -1.101519
 H         1.979954         1.946585         0.689627
 H         1.858520         1.104011         2.168498
 H         4.370982         0.766648         0.835367
 H         3.636290        -1.809818         1.201030
 H         4.149032        -0.901867        -1.553427
 H         2.640766        -1.915496        -1.722743
 H         1.247902         1.367897        -1.958376
