19
Iteration:  4165
 C        -0.201790        -0.034598        -0.209150
 C         1.339760         0.029442         0.127340
 C         2.062546         0.989159         1.140584
 C         3.250655         0.454347         0.468514
 C         3.177924        -1.144004         0.408804
 C         3.148750        -1.159247        -1.132018
 C         2.517894         0.238244        -0.858061
 O         2.278465         1.322665        -1.783079
 O         1.795332        -1.262535         0.699191
 H        -0.845417        -0.082642         0.774463
 H        -0.429736         0.938933        -0.731835
 H        -0.388271        -0.937595        -0.848823
 H         1.809518         1.980182         0.726908
 H         1.969561         0.795852         2.179855
 H         4.274477         0.814427         0.715290
 H         3.838042        -1.810746         1.065171
 H         4.156168        -1.013039        -1.459566
 H         2.473969        -1.854067        -1.706331
 H         2.935410         1.265413        -2.527317
