19
Iteration:    50charge 0 multiplicity 1
 C        -0.253407         0.120189        -0.309511
 C         1.250422         0.017672         0.165297
 C         2.082330         1.020348         1.197887
 C         3.402271         0.351503         0.556536
 C         3.087504        -1.157709         0.420391
 C         3.183294        -1.058883        -1.162647
 C         2.544090         0.253292        -0.799756
 O         2.463104         1.105395        -1.901640
 O         1.643603        -1.273070         0.703374
 H        -1.025122        -0.121847         0.410653
 H        -0.341407         1.160066        -0.603661
 H        -0.448107        -0.472035        -1.227354
 H         2.057212         2.118660         0.962043
 H         1.829507         0.788216         2.246472
 H         4.438283         0.797817         0.674997
 H         3.580037        -1.904088         1.045803
 H         4.245312        -0.840637        -1.619016
 H         2.620505        -1.917739        -1.702202
 H         2.306013         2.042010        -1.640327
