19
Iteration:  4255charge 0 multiplicity 1
 C        -0.061572         0.003311        -0.155089
 C         1.350116         0.014059         0.161582
 C         1.994092         0.981907         1.195056
 C         3.259185         0.493272         0.499494
 C         3.156355        -1.212306         0.395436
 C         3.152679        -1.075577        -1.164166
 C         2.551899         0.316666        -0.899632
 O         2.357566         1.200243        -1.967747
 O         1.720823        -1.325657         0.802459
 H        -0.822317        -0.207369         0.664455
 H        -0.409102         1.064810        -0.594677
 H        -0.433324        -0.502162        -1.024713
 H         1.682043         2.011679         0.893148
 H         1.711756         0.713767         2.232488
 H         4.337448         0.779999         0.445415
 H         3.921234        -1.850182         0.802484
 H         4.129799        -0.700547        -1.575198
 H         2.669208        -1.853113        -1.707256
 H         1.658895         1.821585        -1.688986
