19
Iteration:  3411
 C        -0.205489        -0.056237        -0.058602
 C         1.247262         0.004707         0.243848
 C         2.084778         1.004050         1.193296
 C         3.236104         0.415992         0.429762
 C         3.116128        -1.088036         0.449754
 C         3.224573        -1.058507        -1.047078
 C         2.482391         0.286564        -0.963113
 O         2.512116         1.315591        -1.886235
 O         1.691942        -1.323421         0.537468
 H        -0.991302        -0.412356         0.722536
 H        -0.606491         0.961031        -0.400672
 H        -0.224827        -0.727103        -0.819020
 H         2.009883         1.997167         0.949059
 H         1.997082         0.806691         2.233587
 H         4.335526         0.720219         0.380193
 H         3.535432        -1.853531         1.133776
 H         4.274460        -0.980240        -1.302629
 H         2.735448        -1.926828        -1.499729
 H         1.971512         0.979501        -2.601702
