19
Iteration:  3982charge 0 multiplicity 1
 C        -0.041731         0.090557        -0.272076
 C         1.355907         0.047539         0.124543
 C         2.044368         0.922969         1.131129
 C         3.293141         0.418275         0.474675
 C         3.123569        -1.167606         0.445973
 C         3.149227        -1.069395        -1.175192
 C         2.471842         0.200479        -0.902788
 O         2.160963         1.233641        -1.786480
 O         1.797457        -1.271904         0.819164
 H        -0.888146        -0.139202         0.406040
 H        -0.310317         1.067657        -0.673414
 H        -0.175151        -0.637936        -1.020634
 H         2.014194         2.050874         0.857014
 H         2.000353         0.762683         2.216268
 H         4.212989         1.015335         0.453110
 H         3.710416        -1.820342         1.109503
 H         4.260019        -1.106134        -1.368536
 H         2.692937        -1.826428        -1.846240
 H         2.909285         1.464162        -2.368743
