19
Iteration:  4856
 C        -0.226515        -0.039860         0.013478
 C         1.313778        -0.025238         0.147313
 C         2.072437         0.966891         1.094436
 C         3.344305         0.524593         0.444900
 C         3.071515        -1.160985         0.489197
 C         3.356006        -1.105577        -1.116638
 C         2.495738         0.233272        -1.015364
 O         2.411526         1.225502        -1.974673
 O         1.641658        -1.237237         0.689201
 H        -0.875306        -0.265097         0.931278
 H        -0.601107         0.943260        -0.354522
 H        -0.547968        -0.900911        -0.590617
 H         1.691740         1.993901         0.878480
 H         1.886131         0.848498         2.196394
 H         4.224749         1.003416         0.759096
 H         3.512445        -1.958100         1.148074
 H         4.344805        -0.813770        -1.512594
 H         2.969966        -1.795553        -1.919726
 H         1.948211         1.946431        -1.474602
