19
Iteration:  3547charge 0 multiplicity 1
 C        -0.252263        -0.006791         0.044129
 C         1.249051        -0.029196         0.166360
 C         1.968001         1.053754         1.097696
 C         3.226161         0.518243         0.445772
 C         3.199362        -1.080149         0.365637
 C         3.220759        -1.047276        -1.205293
 C         2.502539         0.180894        -0.895238
 O         2.556790         1.224083        -1.750566
 O         1.709004        -1.355010         0.630449
 H        -0.665679        -0.051392         1.092574
 H        -0.488455         0.941992        -0.442356
 H        -0.682334        -0.802789        -0.818781
 H         1.710908         2.053402         0.519131
 H         1.699930         0.942073         2.181774
 H         4.208007         0.912187         0.427485
 H         3.808824        -1.747931         0.995300
 H         4.274270        -0.994122        -1.638212
 H         2.578070        -1.786090        -1.703453
 H         2.472837         1.086596        -2.721054
