19
Iteration:  4545charge 0 multiplicity 1
 C        -0.241134         0.031835         0.033289
 C         1.256637        -0.046141         0.203505
 C         2.017480         0.997490         1.106158
 C         3.239211         0.462469         0.352493
 C         3.180461        -1.070000         0.408709
 C         3.332626        -1.114024        -1.082350
 C         2.384587         0.189855        -1.007286
 O         2.562729         1.340675        -1.807314
 O         1.682207        -1.374132         0.587869
 H        -0.791783         0.050311         0.985312
 H        -0.533841         1.011048        -0.251820
 H        -0.835736        -0.811380        -0.583033
 H         1.671544         2.090189         1.031933
 H         1.855651         0.753832         2.166587
 H         4.295615         0.747494         0.456137
 H         3.765201        -1.599730         1.141142
 H         4.369385        -0.856517        -1.249218
 H         2.807023        -1.920568        -1.582371
 H         1.974022         1.186451        -2.591414
