19
Iteration:  4084
 C        -0.127199         0.089527        -0.130684
 C         1.297547        -0.005793         0.173882
 C         2.052145         0.973127         1.153035
 C         3.234351         0.493252         0.415697
 C         3.183108        -1.052100         0.422508
 C         3.216594        -1.103213        -1.063231
 C         2.461037         0.178642        -0.863500
 O         2.271678         1.181759        -1.840230
 O         1.771402        -1.345964         0.593013
 H        -0.681378        -0.084848         0.769520
 H        -0.373289         1.129012        -0.464450
 H        -0.627244        -0.426165        -1.074691
 H         1.827203         2.014307         0.971532
 H         1.817146         0.774021         2.224300
 H         4.212756         0.965935         0.321389
 H         3.723910        -1.780044         0.966986
 H         4.303602        -1.054827        -1.414633
 H         2.729435        -1.977801        -1.470399
 H         3.088879         1.713688        -1.975938
