19
Iteration:  1322charge 0 multiplicity 1
 C        -0.120287         0.128463        -0.380850
 C         1.269177        -0.014279         0.192831
 C         1.862891         0.928913         1.208266
 C         3.171675         0.397422         0.629407
 C         3.158678        -1.119899         0.372809
 C         3.227871        -1.037939        -1.178558
 C         2.584170         0.268157        -0.823215
 O         2.359548         1.191289        -1.869650
 O         1.808653        -1.337871         0.767164
 H        -1.072679        -0.117991         0.305974
 H        -0.211496         1.147991        -0.647182
 H        -0.155420        -0.695508        -1.212626
 H         1.734317         1.991140         0.861975
 H         1.561299         0.803464         2.225169
 H         4.169858         0.906274         0.650887
 H         3.838854        -1.822515         0.849743
 H         4.283209        -0.844861        -1.360229
 H         2.657052        -1.722642        -1.830355
 H         3.177117         1.617535        -2.250198
