19
Iteration:   385charge 0 multiplicity 1
 C        -0.089669         0.149052        -0.246974
 C         1.300063         0.038699         0.190274
 C         2.049847         0.989585         1.136521
 C         3.310191         0.439326         0.519223
 C         3.056106        -1.188855         0.424965
 C         3.118593        -1.233739        -1.095920
 C         2.542551         0.275488        -0.897852
 O         2.479499         1.327155        -1.817669
 O         1.675855        -1.354691         0.662812
 H        -0.816457        -0.008690         0.623567
 H        -0.273501         1.138699        -0.625562
 H        -0.326108        -0.611710        -1.026701
 H         1.754688         1.925944         0.658957
 H         1.951235         0.804936         2.207792
 H         4.286048         0.811777         0.506249
 H         3.627238        -1.882400         1.032689
 H         4.199736        -1.310814        -1.383426
 H         2.618842        -2.120675        -1.550853
 H         1.573445         1.594723        -2.132000
