19
Iteration:  4292
 C        -0.145660         0.036681        -0.351894
 C         1.360180         0.005007         0.180382
 C         2.104913         1.049644         1.167095
 C         3.339811         0.428299         0.397368
 C         3.241072        -1.159651         0.420865
 C         3.119230        -1.162018        -1.087163
 C         2.488495         0.223040        -0.814439
 O         2.239811         1.325304        -1.752958
 O         1.708429        -1.303034         0.700898
 H        -0.771794        -0.254841         0.418732
 H        -0.272786         1.021298        -0.658131
 H        -0.098871        -0.735458        -1.169998
 H         1.967347         2.132525         1.031729
 H         1.990535         0.841963         2.285188
 H         4.342498         0.818357         0.471937
 H         3.997227        -1.625818         1.119983
 H         4.027399        -1.046974        -1.703754
 H         2.653086        -2.096951        -1.517038
 H         1.422309         1.075690        -2.193305
