19
Iteration:  2820
 C        -0.084011         0.050491        -0.431570
 C         1.309129        -0.041198         0.248316
 C         2.077514         0.964405         1.272641
 C         3.286935         0.441437         0.464570
 C         3.161685        -1.069489         0.402255
 C         3.143129        -1.031207        -1.136947
 C         2.456343         0.230991        -0.839352
 O         2.322271         1.194176        -1.815604
 O         1.766516        -1.342030         0.704210
 H        -1.065806         0.058571         0.304064
 H         0.019990         1.110947        -0.728434
 H        -0.156348        -0.664295        -1.243818
 H         1.743548         1.939950         1.026513
 H         2.065340         0.771370         2.374938
 H         4.229767         0.863262         0.275056
 H         3.674909        -1.857359         0.926430
 H         4.151584        -0.981891        -1.637472
 H         2.434577        -1.810338        -1.589125
 H         1.803016         1.917296        -1.487681
