19
Iteration:  4152
 C        -0.060925        -0.041253        -0.279830
 C         1.298915         0.026073         0.183218
 C         2.049125         1.054053         1.189306
 C         3.377130         0.400236         0.459890
 C         3.149287        -1.109488         0.386258
 C         3.150926        -1.094394        -1.120216
 C         2.475726         0.246515        -0.874750
 O         2.224377         1.229988        -1.698582
 O         1.719683        -1.234030         0.648099
 H        -0.791179        -0.211842         0.603515
 H        -0.406114         0.819383        -0.829199
 H        -0.206130        -1.004806        -0.975311
 H         2.140637         2.098834         1.048107
 H         1.846651         0.985710         2.243916
 H         4.319312         0.918635         0.312247
 H         3.701286        -1.909194         0.955499
 H         4.046937        -1.013609        -1.677273
 H         2.741016        -2.074041        -1.490102
 H         2.739462         1.214590        -2.508367
