19
Iteration:  3698charge 0 multiplicity 1
 C        -0.280452        -0.013982        -0.008597
 C         1.256767        -0.015678         0.203875
 C         2.014204         1.021290         1.117819
 C         3.280326         0.480298         0.429021
 C         3.140586        -1.122078         0.381835
 C         3.211601        -1.085659        -1.134488
 C         2.491958         0.249748        -0.904121
 O         2.583803         1.246059        -1.875626
 O         1.684349        -1.328048         0.678858
 H        -0.802488        -0.286000         0.973979
 H        -0.648622         0.926288        -0.349633
 H        -0.453777        -0.834269        -0.640581
 H         1.817200         2.043772         0.842333
 H         2.051435         0.878855         2.138110
 H         4.197913         1.066184         0.396821
 H         3.883656        -1.687163         0.967152
 H         4.117702        -0.716484        -1.672626
 H         2.830129        -1.866781        -1.777810
 H         1.869338         1.152874        -2.558431
