19
Iteration:  4853charge 0 multiplicity 1
 C        -0.223933        -0.022831         0.007977
 C         1.317853        -0.024383         0.139275
 C         2.055458         0.951040         1.099769
 C         3.335891         0.495225         0.449182
 C         3.096365        -1.170794         0.467525
 C         3.333362        -1.091343        -1.106070
 C         2.501078         0.212041        -1.030510
 O         2.400205         1.232041        -1.971317
 O         1.646107        -1.222120         0.691646
 H        -0.886478        -0.233414         0.880407
 H        -0.590603         0.958011        -0.371550
 H        -0.437256        -0.831979        -0.592750
 H         1.613747         1.981884         0.829709
 H         1.965565         0.917146         2.286094
 H         4.272668         1.038682         0.744256
 H         3.597515        -1.878598         1.153922
 H         4.440473        -0.808770        -1.376288
 H         2.958606        -1.800913        -1.816319
 H         1.861839         1.842264        -1.408774
