19
Iteration:  4948charge 0 multiplicity 1
 C        -0.092313         0.027013        -0.308123
 C         1.355596         0.065569         0.132249
 C         2.085932         1.150755         1.202065
 C         3.291290         0.403033         0.452463
 C         3.184315        -1.166253         0.426214
 C         3.237756        -1.111408        -1.098838
 C         2.542012         0.233353        -0.848521
 O         2.168176         1.139439        -1.828794
 O         1.701671        -1.314373         0.705791
 H        -0.675859        -0.175720         0.578738
 H        -0.420377         1.026069        -0.612603
 H        -0.261745        -0.910704        -0.920019
 H         2.019643         2.166561         0.886509
 H         1.730486         1.104657         2.179953
 H         4.448755         0.526760         0.423127
 H         3.837683        -1.830060         0.966900
 H         4.296750        -1.036245        -1.478047
 H         2.648550        -1.729596        -1.769408
 H         1.726946         1.960820        -1.583433
