19
Iteration:  1921
 C        -0.210023        -0.006880        -0.142826
 C         1.249305        -0.012705         0.092570
 C         1.957903         1.062224         1.042927
 C         3.179699         0.366645         0.605901
 C         3.108922        -1.170751         0.381243
 C         3.394664        -1.035130        -1.109628
 C         2.643498         0.238472        -0.919713
 O         2.381494         1.282430        -1.706868
 O         1.650825        -1.316981         0.611132
 H        -0.747396        -0.332105         0.763291
 H        -0.535658         0.953593        -0.372495
 H        -0.462834        -0.842804        -1.090207
 H         2.049468         2.068202         0.721881
 H         1.561168         1.186793         2.055952
 H         4.203398         0.763602         0.859755
 H         3.706862        -1.681618         1.084392
 H         4.506827        -0.797993        -1.183976
 H         3.134948        -1.802916        -1.865775
 H         2.698964         1.268244        -2.650110
