19
Iteration:   899
 C        -0.126915        -0.009859        -0.328882
 C         1.312720         0.007121         0.083600
 C         2.018757         0.943020         1.223895
 C         3.234617         0.450668         0.494016
 C         3.085081        -1.162346         0.485031
 C         3.246976        -1.077587        -1.080057
 C         2.427548         0.295668        -0.845780
 O         2.522423         1.300228        -1.800596
 O         1.663875        -1.299387         0.661190
 H        -0.845609         0.260452         0.515683
 H        -0.222265         0.880679        -0.974559
 H        -0.374670        -0.994217        -0.852110
 H         1.845287         2.021158         1.270510
 H         2.024970         0.438417         2.129074
 H         4.357814         0.814429         0.447602
 H         3.536971        -1.918549         1.121656
 H         4.149771        -0.660585        -1.504557
 H         2.952792        -1.840073        -1.701339
 H         1.738222         1.162192        -2.405412
