19
Iteration:  1256charge 0 multiplicity 1
 C        -0.178974         0.018769        -0.267949
 C         1.265633        -0.088508         0.108775
 C         1.924475         0.919839         1.052267
 C         3.246888         0.381577         0.594865
 C         3.160419        -1.165920         0.469794
 C         3.290419        -0.992609        -1.091037
 C         2.569204         0.307283        -0.866716
 O         2.391504         1.316393        -1.807007
 O         1.686978        -1.308701         0.683292
 H        -0.915201         0.132948         0.673838
 H        -0.441596         0.923126        -0.880365
 H        -0.756786        -0.866319        -0.779908
 H         1.935294         1.904915         0.549593
 H         1.587421         0.964973         2.092061
 H         4.150445         1.007385         0.603417
 H         3.772002        -1.941714         0.888376
 H         4.325656        -0.869329        -1.220929
 H         2.984023        -1.860011        -1.659427
 H         3.288717         1.448649        -2.089957
