19
Iteration:  4867
 C        -0.241379        -0.078254         0.010259
 C         1.242420         0.029082         0.153518
 C         2.026310         1.036815         1.088226
 C         3.280324         0.492836         0.446820
 C         3.080415        -1.130521         0.459799
 C         3.285273        -1.084346        -1.159946
 C         2.571350         0.281884        -0.875912
 O         2.434300         1.191107        -1.984793
 O         1.694503        -1.310470         0.669152
 H        -0.442268        -0.196567         1.117037
 H        -0.693535         0.852329        -0.391598
 H        -0.593849        -0.852240        -0.685192
 H         2.004557         2.134717         0.928664
 H         1.826605         0.671035         2.125734
 H         4.289523         0.786173         0.478207
 H         3.653834        -1.867859         1.089755
 H         4.330251        -0.812763        -1.399914
 H         2.846400        -1.974133        -1.691358
 H         2.307130         2.129957        -1.810985
