19
Iteration:  2414charge 0 multiplicity 1
 C        -0.195550        -0.102697        -0.118975
 C         1.264134         0.040612         0.109897
 C         1.905893         0.976501         1.246551
 C         3.182795         0.466678         0.613663
 C         3.179560        -1.114798         0.392737
 C         3.240392        -1.024777        -1.133670
 C         2.557114         0.268520        -0.923481
 O         2.622304         1.270707        -1.918900
 O         1.653073        -1.274608         0.571153
 H        -0.529450        -0.338337         1.041372
 H        -0.791901         0.731435        -0.295290
 H        -0.497885        -1.029024        -0.770603
 H         1.624604         2.063692         1.105419
 H         1.625389         0.734865         2.264017
 H         4.206202         0.798202         0.877015
 H         3.809983        -1.793117         0.886396
 H         4.245546        -0.830308        -1.412948
 H         2.893047        -1.973176        -1.615267
 H         1.931717         1.119970        -2.572275
