19
Iteration:   507charge 0 multiplicity 1
 C        -0.106699         0.195285        -0.200129
 C         1.311833        -0.027265         0.140644
 C         2.065946         0.981765         1.035280
 C         3.277000         0.433706         0.376707
 C         3.062981        -1.201002         0.388348
 C         3.139767        -1.113364        -1.049349
 C         2.518894         0.198794        -0.874554
 O         2.451033         1.330338        -1.705979
 O         1.647835        -1.383255         0.761918
 H        -0.740279         0.188221         0.700683
 H        -0.048780         1.165660        -0.718488
 H        -0.628234        -0.522553        -0.945339
 H         1.781000         2.070150         0.788445
 H         2.189427         0.670822         2.069123
 H         4.272645         1.025865         0.400801
 H         3.621175        -1.910237         0.956889
 H         4.189049        -1.052311        -1.556949
 H         2.464903        -1.929364        -1.543861
 H         2.604889         1.057919        -2.645070
