19
Iteration:  2911charge 0 multiplicity 1
 C        -0.268935         0.064857        -0.059998
 C         1.285630        -0.063814         0.093016
 C         1.893747         0.870440         1.110094
 C         3.241788         0.450694         0.505934
 C         3.177127        -1.134293         0.454807
 C         3.213763        -1.065649        -1.175412
 C         2.548714         0.259984        -0.934068
 O         2.524502         1.305630        -1.943933
 O         1.749204        -1.358425         0.702505
 H        -0.609694        -0.248242         1.016672
 H        -0.558628         1.230064        -0.174294
 H        -0.916786        -0.490062        -0.791366
 H         1.549284         1.865296         0.813330
 H         1.911915         0.862132         2.179935
 H         4.242905         0.940070         0.739318
 H         3.976428        -1.665322         1.023426
 H         4.322992        -0.916408        -1.560442
 H         2.747482        -1.930505        -1.704426
 H         2.384360         2.136408        -1.429917
