19
Iteration:  1477
 C        -0.119662         0.064191        -0.331650
 C         1.263206        -0.003217         0.132649
 C         1.943567         1.074407         1.112822
 C         3.245057         0.368729         0.616713
 C         3.104159        -1.269100         0.397503
 C         3.411601        -1.045283        -1.041471
 C         2.608036         0.302734        -0.789417
 O         2.231517         1.293650        -1.818510
 O         1.657117        -1.367181         0.631735
 H        -0.864205        -0.114659         0.598395
 H        -0.490925         0.905181        -0.867263
 H        -0.232890        -0.765282        -0.981765
 H         1.916521         2.050260         0.603837
 H         1.782291         1.234655         2.193688
 H         4.339343         0.630380         0.710804
 H         3.765692        -1.789179         1.089430
 H         4.584235        -0.864084        -1.400446
 H         3.023066        -1.973543        -1.596717
 H         3.000513         1.485214        -2.329939
