19
Iteration:  3104
 C        -0.044888         0.082483        -0.190154
 C         1.331912        -0.052508         0.209178
 C         2.020775         0.966126         1.064239
 C         3.284409         0.502399         0.428955
 C         3.113290        -1.198871         0.455485
 C         3.165618        -1.142591        -1.127703
 C         2.449994         0.223416        -0.937982
 O         2.299739         1.289012        -1.854080
 O         1.710510        -1.308164         0.723499
 H        -0.805995        -0.334034         0.514358
 H        -0.212095         1.133221        -0.357177
 H        -0.180426        -0.477366        -1.045738
 H         1.980537         2.092744         1.068799
 H         1.911069         0.630039         2.192588
 H         4.273580         0.826606         0.561635
 H         3.703739        -1.844667         1.177193
 H         4.174430        -0.802008        -1.396469
 H         2.761466        -1.912182        -1.746855
 H         2.893802         1.958097        -1.515091
