19
Iteration:  2984
 C        -0.006974         0.071019        -0.373598
 C         1.383997        -0.099790         0.204073
 C         2.031364         0.921980         1.187380
 C         3.333182         0.483552         0.476678
 C         3.084603        -1.144485         0.436987
 C         3.143434        -1.124892        -1.174497
 C         2.559551         0.274376        -0.885354
 O         2.257859         1.304316        -1.858263
 O         1.722589        -1.310046         0.785656
 H        -0.894624        -0.217800         0.383893
 H        -0.127399         1.075883        -0.761299
 H        -0.243150        -0.672621        -1.114357
 H         1.740442         1.973706         0.878905
 H         1.862264         0.874848         2.338107
 H         4.270309         0.830500         0.724978
 H         3.665782        -1.869110         0.999874
 H         4.174737        -1.043049        -1.511306
 H         2.442889        -1.819774        -1.636845
 H         1.602817         1.909260        -1.407331
