19
Iteration:  2478charge 0 multiplicity 1
 C        -0.054709         0.048552        -0.378494
 C         1.407499         0.028604         0.138643
 C         1.994395         0.973644         1.083190
 C         3.311857         0.351291         0.508808
 C         3.135775        -1.159515         0.463395
 C         3.239223        -1.067765        -1.015118
 C         2.501574         0.214464        -0.888071
 O         2.193727         1.341086        -1.653324
 O         1.741153        -1.257048         0.624941
 H        -0.816599        -0.470907         0.433904
 H        -0.342563         0.922897        -0.798456
 H        -0.073777        -0.714835        -1.226461
 H         1.901224         1.991894         0.716863
 H         1.736817         0.828619         2.113616
 H         4.254881         0.820554         0.738521
 H         3.621159        -1.907776         1.030336
 H         4.318372        -0.894631        -1.287100
 H         2.875622        -2.033185        -1.586993
 H         1.665294         0.984711        -2.426362
