19
Iteration:  2528
 C        -0.168732        -0.047860        -0.266274
 C         1.309595         0.017116         0.144449
 C         1.946717         0.813194         1.166562
 C         3.288191         0.498638         0.537987
 C         3.212133        -1.077106         0.373554
 C         3.139888        -1.097026        -1.111579
 C         2.398628         0.258626        -0.839575
 O         2.544524         1.336960        -1.861535
 O         1.721160        -1.289545         0.723130
 H        -0.692531        -0.042168         0.597385
 H        -0.296882         1.030537        -0.919228
 H        -0.390368        -0.880356        -0.910458
 H         1.759809         1.879439         0.986062
 H         1.627328         0.496073         2.213078
 H         4.191209         1.104593         0.655738
 H         3.908092        -1.721860         1.020239
 H         4.115176        -0.814448        -1.489879
 H         2.834315        -2.001018        -1.488256
 H         1.709318         1.340237        -2.315860
