19
Iteration:  3066
 C        -0.267337        -0.027518         0.008548
 C         1.284176         0.029857         0.124643
 C         1.994655         0.958508         1.141315
 C         3.319551         0.422819         0.561179
 C         3.104416        -1.127401         0.415643
 C         3.182479        -1.063753        -1.138800
 C         2.559076         0.267097        -0.892110
 O         2.481845         1.277238        -1.922037
 O         1.714241        -1.283067         0.608447
 H        -0.739194        -0.120224         0.976055
 H        -0.648247         0.954886        -0.385539
 H        -0.604998        -0.876018        -0.730697
 H         1.795793         1.970178         0.889770
 H         1.656413         0.636960         2.048573
 H         4.203107         1.113436         0.789728
 H         3.730173        -1.844783         0.923215
 H         4.143574        -0.964034        -1.672353
 H         2.549179        -1.769420        -1.746712
 H         3.181500         1.014749        -2.527928
