19
Iteration:  1270
 C        -0.242923         0.006061        -0.250238
 C         1.283149         0.035213         0.031071
 C         1.899051         1.015373         1.122449
 C         3.240336         0.408834         0.567630
 C         3.103450        -1.176566         0.436708
 C         3.432913        -1.125522        -1.114807
 C         2.573867         0.206220        -0.885533
 O         2.353625         1.330348        -1.770707
 O         1.700754        -1.312142         0.659699
 H        -0.735652         0.187249         0.833851
 H        -0.469648         0.850756        -0.836194
 H        -0.422368        -0.983397        -0.703716
 H         1.718608         2.157256         1.007092
 H         1.622859         0.732837         2.159904
 H         4.342851         0.721498         0.872431
 H         3.573989        -1.788843         1.236758
 H         4.411333        -0.777187        -1.327932
 H         2.972342        -1.826968        -1.823013
 H         3.157901         1.533440        -2.339342
