19
Iteration:  2841
 C        -0.074894         0.038843        -0.306100
 C         1.325305         0.084965         0.168268
 C         1.973336         0.878803         1.235454
 C         3.322085         0.417398         0.549759
 C         3.194588        -1.167233         0.402698
 C         3.104385        -1.088773        -1.170182
 C         2.553377         0.350290        -0.831515
 O         2.335174         1.197535        -1.931020
 O         1.747813        -1.257600         0.718418
 H        -0.762791        -0.222561         0.740359
 H        -0.488309         0.861169        -0.895635
 H        -0.064564        -0.950118        -0.869051
 H         1.828327         1.956281         1.194677
 H         1.728288         0.566419         2.278622
 H         4.233699         0.871148         0.871914
 H         3.606947        -2.031195         0.926416
 H         4.115326        -0.866309        -1.538274
 H         2.596464        -1.740310        -1.935593
 H         1.633753         1.880511        -1.762334
