19
Iteration:  4608
 C        -0.131724        -0.044547        -0.309735
 C         1.311317         0.028921         0.299082
 C         2.112572         1.028475         1.183863
 C         3.377728         0.471799         0.442500
 C         3.111768        -1.145615         0.432113
 C         3.142063        -1.189033        -1.137141
 C         2.477829         0.259177        -0.880662
 O         2.303500         1.303389        -1.800077
 O         1.748554        -1.267781         0.683576
 H        -0.939357        -0.344502         0.341694
 H        -0.281401         0.939846        -0.709406
 H        -0.007801        -0.678776        -1.248063
 H         1.764332         2.097605         1.061257
 H         1.905636         0.742037         2.244355
 H         4.375599         0.874238         0.560768
 H         3.725652        -1.773170         1.160336
 H         4.165558        -1.023737        -1.477660
 H         2.569214        -1.931673        -1.749648
 H         1.600519         1.157077        -2.479176
