19
Iteration:  1222
 C        -0.127687        -0.005630        -0.403413
 C         1.323165         0.023860         0.117047
 C         1.900417         0.984089         1.292318
 C         3.218645         0.481770         0.559526
 C         3.194173        -1.118496         0.448187
 C         3.233698        -1.137661        -1.159496
 C         2.559214         0.228696        -0.878894
 O         2.363787         1.260468        -1.813964
 O         1.688650        -1.293251         0.657109
 H        -0.796419        -0.151010         0.561184
 H        -0.407696         1.073649        -0.810292
 H        -0.204067        -0.853708        -1.194657
 H         1.790483         2.052888         1.261476
 H         1.752675         0.691721         2.337524
 H         4.076807         1.109512         0.625332
 H         3.722377        -1.839563         1.068231
 H         4.257904        -1.195360        -1.490718
 H         2.669456        -2.007591        -1.408531
 H         3.201133         1.698599        -1.952190
