19
Iteration:  3064
 C        -0.238265        -0.043652         0.006445
 C         1.295777         0.032856         0.115185
 C         2.000110         0.949780         1.146391
 C         3.315603         0.431141         0.564584
 C         3.084072        -1.127158         0.414833
 C         3.182852        -1.062900        -1.135801
 C         2.546110         0.271476        -0.905508
 O         2.484624         1.289272        -1.927819
 O         1.704278        -1.282427         0.613977
 H        -0.778354        -0.110487         1.061505
 H        -0.613761         1.000206        -0.377043
 H        -0.573829        -0.868822        -0.658247
 H         1.728096         1.975171         0.853731
 H         1.640382         0.606526         2.151012
 H         4.210886         1.120217         0.748403
 H         3.674428        -1.918189         0.928522
 H         4.232252        -0.980994        -1.618934
 H         2.591650        -1.796820        -1.756097
 H         3.159458         0.983890        -2.594452
