19
Iteration:  4953charge 0 multiplicity 1
 C        -0.080193         0.042043        -0.312026
 C         1.337584         0.054547         0.160973
 C         2.096184         1.123974         1.187219
 C         3.305466         0.463987         0.461499
 C         3.133887        -1.184979         0.438137
 C         3.247649        -1.044781        -1.133767
 C         2.550534         0.217773        -0.830426
 O         2.169483         1.109932        -1.844075
 O         1.727571        -1.321734         0.686059
 H        -0.602844        -0.154221         0.676005
 H        -0.506741         0.981356        -0.725665
 H        -0.307440        -0.774622        -0.961685
 H         2.159053         2.182537         0.737460
 H         1.691830         1.171662         2.287070
 H         4.352154         0.561707         0.574016
 H         3.751648        -1.935895         1.000820
 H         4.263555        -1.158239        -1.541083
 H         2.625189        -1.816456        -1.655619
 H         1.653165         1.789809        -1.331859
