19
Iteration:   716charge 0 multiplicity 1
 C        -0.143789         0.131618        -0.247256
 C         1.324366         0.038053         0.148615
 C         2.030747         0.963564         1.146594
 C         3.293155         0.392672         0.598301
 C         3.092180        -1.197539         0.455057
 C         3.187003        -1.082944        -1.155748
 C         2.573766         0.231899        -0.819266
 O         2.310030         1.170349        -1.844346
 O         1.699233        -1.243307         0.615757
 H        -0.854551         0.137517         0.555294
 H        -0.394640         0.961834        -0.894716
 H        -0.425127        -0.777648        -0.808010
 H         1.961166         2.091651         0.830270
 H         1.908342         0.779304         2.263919
 H         4.316896         0.810087         0.760742
 H         3.650515        -1.982681         0.977486
 H         4.312493        -1.035351        -1.522877
 H         2.572064        -1.830597        -1.899160
 H         3.035872         1.816142        -1.926519
