19
Iteration:  3700charge 0 multiplicity 1
 C        -0.287175        -0.010534        -0.003460
 C         1.258166        -0.023223         0.198788
 C         2.010841         0.998339         1.109321
 C         3.259008         0.493270         0.406047
 C         3.138644        -1.132100         0.359845
 C         3.194599        -1.100342        -1.106693
 C         2.519705         0.271592        -0.892009
 O         2.587247         1.256210        -1.874743
 O         1.688994        -1.321137         0.689932
 H        -0.693768        -0.284099         0.924811
 H        -0.603569         0.923375        -0.326170
 H        -0.488714        -0.906391        -0.629201
 H         1.810123         2.084208         0.858095
 H         2.034164         0.896509         2.196294
 H         4.161047         1.043097         0.344717
 H         3.880462        -1.689173         0.945194
 H         4.136158        -0.712886        -1.643160
 H         2.843517        -1.886494        -1.798919
 H         1.907307         1.140119        -2.581229
