19
Iteration:  3376charge 0 multiplicity 1
 C        -0.180438         0.024527         0.019366
 C         1.275277        -0.020046         0.090635
 C         1.884748         0.948333         1.080071
 C         3.208041         0.408053         0.515051
 C         3.090448        -1.127245         0.385410
 C         3.181551        -1.039651        -1.215064
 C         2.562144         0.312152        -0.889139
 O         2.515744         1.257010        -1.853005
 O         1.784259        -1.276055         0.726527
 H        -0.503645        -0.075916         1.008946
 H        -0.635162         0.896135        -0.514248
 H        -0.508368        -0.862878        -0.528644
 H         1.890709         2.049815         0.962506
 H         1.443505         0.672524         2.035849
 H         4.222817         0.807075         0.656469
 H         3.746607        -1.978036         0.828141
 H         4.251691        -1.071081        -1.572632
 H         2.610030        -1.708958        -1.831310
 H         2.949519         1.042566        -2.661637
