19
Iteration:  3043charge 0 multiplicity 1
 C        -0.143112         0.015582        -0.039607
 C         1.305840        -0.007781         0.197440
 C         1.979951         0.981010         1.195623
 C         3.200982         0.406074         0.374299
 C         3.037621        -1.207776         0.395990
 C         3.281767        -1.054101        -1.057293
 C         2.571954         0.282205        -0.910047
 O         2.479037         1.347412        -1.922335
 O         1.628617        -1.305551         0.644328
 H        -0.551412        -0.054019         1.016808
 H        -0.684868         0.891400        -0.576417
 H        -0.333010        -0.953122        -0.588689
 H         1.903916         2.030934         1.042087
 H         1.883016         0.612344         2.165546
 H         4.272302         0.706162         0.700875
 H         3.798147        -1.692698         1.014482
 H         4.309128        -0.739081        -1.381050
 H         2.999377        -1.796415        -1.855799
 H         2.383424         0.882277        -2.775757
