19
Iteration:  2194charge 0 multiplicity 1
 C        -0.092493         0.001291        -0.313500
 C         1.338628        -0.031804         0.136428
 C         1.947492         0.937738         1.200756
 C         3.316054         0.502180         0.580366
 C         3.132607        -1.190494         0.448013
 C         3.164979        -1.013845        -1.108143
 C         2.532909         0.364315        -0.754713
 O         2.371095         1.294607        -1.894882
 O         1.648502        -1.339019         0.634543
 H        -0.764596        -0.046279         0.576394
 H        -0.267661         0.813690        -0.886099
 H        -0.288738        -0.947245        -0.841032
 H         1.888111         2.012123         1.094577
 H         1.786916         0.458421         2.231562
 H         4.308706         0.897381         0.636608
 H         3.788758        -1.935475         1.046434
 H         4.207741        -0.928065        -1.456773
 H         2.614395        -1.782463        -1.657194
 H         2.850928         0.878074        -2.653732
