19
Iteration:  1599charge 0 multiplicity 1
 C        -0.154206         0.054396        -0.200040
 C         1.283827        -0.119762         0.063663
 C         1.920620         0.931238         1.013364
 C         3.232216         0.493846         0.489871
 C         3.139576        -1.152036         0.549392
 C         3.339213        -1.104622        -1.047315
 C         2.555275         0.254759        -0.816876
 O         2.381520         1.427928        -1.770232
 O         1.682131        -1.420226         0.590287
 H        -0.744936         0.113163         0.785443
 H        -0.448031         1.013324        -0.711481
 H        -0.592262        -0.615791        -0.798931
 H         1.747316         1.918445         0.654432
 H         1.519978         0.732111         2.035091
 H         4.134323         1.033813         0.473025
 H         3.635234        -1.743645         1.324804
 H         4.506720        -0.858887        -1.351259
 H         2.803473        -1.921372        -1.608441
 H         3.145318         1.442727        -2.353783
