19
Iteration:  3839charge 0 multiplicity 1
 C        -0.150672         0.055721        -0.173682
 C         1.250090         0.007978         0.209587
 C         2.064582         0.992894         1.116938
 C         3.345127         0.407488         0.453550
 C         3.169475        -1.211311         0.413853
 C         3.239748        -1.114656        -1.122348
 C         2.464616         0.207285        -0.931013
 O         2.239825         1.294064        -1.900241
 O         1.724873        -1.276168         0.768099
 H        -0.907299        -0.066859         0.757304
 H        -0.340512         1.083132        -0.407286
 H        -0.499226        -0.696410        -0.813270
 H         1.911356         2.032789         0.809839
 H         1.977815         0.869163         2.183327
 H         4.296381         0.897463         0.606422
 H         3.765941        -1.846613         1.110477
 H         4.237194        -0.897783        -1.426320
 H         2.911371        -1.816931        -1.852639
 H         3.133068         1.542138        -2.262792
