19
Iteration:  1394
 C        -0.114020        -0.019187        -0.291856
 C         1.333636         0.038527         0.060295
 C         1.924350         0.997770         1.093864
 C         3.258773         0.393935         0.550397
 C         3.050443        -1.201313         0.440717
 C         3.261348        -0.983085        -1.104899
 C         2.546313         0.255595        -0.854400
 O         2.349690         1.244817        -1.748194
 O         1.699236        -1.308380         0.686940
 H        -0.628031        -0.319908         0.566148
 H        -0.477297         1.056438        -0.643887
 H        -0.277240        -0.823429        -1.024170
 H         2.011701         2.033090         0.819743
 H         1.547869         0.866341         2.158291
 H         4.210139         0.823507         0.698218
 H         3.759906        -1.809829         1.004640
 H         4.372437        -0.854530        -1.151772
 H         2.878228        -1.719765        -1.790750
 H         3.206618         1.510561        -2.189561
