19
Iteration:  2165
 C        -0.097094         0.160932        -0.406601
 C         1.282663        -0.035028         0.158833
 C         1.922680         0.948334         1.185296
 C         3.265572         0.433412         0.504107
 C         3.188199        -1.118948         0.466995
 C         3.253236        -1.154282        -1.177739
 C         2.497889         0.219205        -0.799858
 O         2.216725         1.273502        -1.739883
 O         1.796515        -1.325699         0.715955
 H        -0.950274         0.279560         0.165705
 H        -0.096168         1.128030        -1.121640
 H        -0.221225        -0.680088        -1.287673
 H         1.873364         2.037473         1.118183
 H         1.728451         0.493837         2.141146
 H         4.305190         0.787578         0.400759
 H         3.835049        -1.666615         1.174805
 H         4.248266        -1.093224        -1.554694
 H         2.771467        -2.007808        -1.638909
 H         3.053443         1.644343        -1.983145
