19
Iteration:   100
 C        -0.276783         0.180652        -0.240382
 C         1.253964         0.043727         0.043380
 C         2.005230         0.960633         1.122349
 C         3.287877         0.384982         0.488577
 C         3.135756        -1.185211         0.481316
 C         3.188095        -1.150190        -1.078582
 C         2.640086         0.198237        -0.837804
 O         2.521929         1.264839        -1.881388
 O         1.711572        -1.307032         0.696688
 H        -0.700844        -0.072984         0.797543
 H        -0.685383         1.167311        -0.588916
 H        -0.654149        -0.609767        -0.879925
 H         1.957445         1.995228         0.833010
 H         1.898437         0.794244         2.215357
 H         4.193887         0.878426         0.635100
 H         3.715415        -1.953515         1.106679
 H         4.107548        -1.153073        -1.522299
 H         2.487507        -1.749467        -1.556798
 H         1.671826         1.715679        -1.643030
