19
Iteration:  2141
 C        -0.032652         0.114466        -0.339842
 C         1.348746        -0.086009         0.112597
 C         2.003929         0.946763         1.065766
 C         3.287234         0.447245         0.546330
 C         3.064745        -1.165287         0.478053
 C         3.270727        -1.055943        -1.069382
 C         2.552647         0.205549        -0.850870
 O         2.165829         1.264035        -1.744377
 O         1.699334        -1.319226         0.673222
 H        -0.758843         0.067773         0.425569
 H        -0.171569         1.091982        -0.822651
 H        -0.242682        -0.674642        -1.271062
 H         1.917978         1.882351         0.560448
 H         2.022575         1.039709         2.183416
 H         4.293107         0.796080         0.568742
 H         3.804680        -1.967015         0.859703
 H         4.285424        -0.959756        -1.239618
 H         2.891241        -1.834115        -1.658264
 H         2.684672         2.086383        -1.580538
