19
Iteration:  2735
 C        -0.176042        -0.081344        -0.051997
 C         1.240886        -0.042706         0.210795
 C         1.967901         0.903518         1.198054
 C         3.206452         0.440809         0.442363
 C         3.129403        -1.105964         0.443807
 C         3.212794        -1.048740        -1.130294
 C         2.489622         0.321231        -0.881296
 O         2.570373         1.367037        -1.937714
 O         1.690680        -1.340581         0.615079
 H        -0.710513        -0.149551         0.787168
 H        -0.307612         1.050158        -0.414878
 H        -0.642751        -0.676660        -0.752444
 H         1.635608         1.882269         0.888120
 H         1.866982         0.668295         2.304397
 H         4.133718         0.914078         0.612445
 H         3.677705        -1.666931         1.214767
 H         4.214832        -0.640847        -1.481314
 H         2.712154        -1.763682        -1.849924
 H         2.919011         0.853708        -2.731878
