19
Iteration:  3981charge 0 multiplicity 1
 C        -0.045091         0.097354        -0.277472
 C         1.352986         0.043122         0.121079
 C         2.048890         0.936296         1.134090
 C         3.290739         0.417339         0.475595
 C         3.123409        -1.169009         0.437279
 C         3.151457        -1.068766        -1.176080
 C         2.482945         0.203574        -0.894322
 O         2.149178         1.224551        -1.783450
 O         1.799344        -1.272126         0.813821
 H        -0.894692        -0.144203         0.409670
 H        -0.295838         1.053212        -0.657438
 H        -0.106824        -0.621162        -0.984214
 H         2.030528         2.051400         0.830858
 H         1.960838         0.745926         2.221509
 H         4.222173         0.975019         0.462378
 H         3.709011        -1.828152         1.109909
 H         4.271939        -1.083464        -1.322878
 H         2.663795        -1.852309        -1.840816
 H         2.915398         1.478545        -2.355260
