19
Iteration:  3210
 C        -0.213767         0.012134         0.105876
 C         1.273044         0.030949         0.121978
 C         2.006958         1.064654         1.098189
 C         3.236157         0.462002         0.504234
 C         3.131121        -1.188521         0.403554
 C         3.235831        -1.124054        -1.123240
 C         2.476502         0.249665        -0.922813
 O         2.587694         1.200768        -1.851055
 O         1.663118        -1.310562         0.505883
 H        -0.476182        -0.049553         1.116637
 H        -0.540172         0.959487        -0.241809
 H        -0.784323        -0.787123        -0.590020
 H         1.791041         2.076219         0.793150
 H         1.868382         0.944356         2.114864
 H         4.218219         0.932740         0.438363
 H         3.763638        -1.850961         1.020895
 H         4.209229        -0.884199        -1.569978
 H         2.866604        -1.963672        -1.747158
 H         1.853608         1.826068        -1.880565
