19
Iteration:  1350charge 0 multiplicity 1
 C        -0.056015         0.066142        -0.434266
 C         1.307242        -0.020020         0.102134
 C         2.017053         0.950339         1.167648
 C         3.245341         0.482968         0.521235
 C         3.130136        -1.120327         0.525493
 C         3.181403        -1.105665        -1.035383
 C         2.561031         0.234497        -0.855497
 O         2.252067         1.298168        -1.758382
 O         1.730936        -1.356514         0.655625
 H        -0.727930        -0.418101         0.234748
 H        -0.476243         1.158768        -0.575516
 H        -0.210933        -0.476187        -1.326161
 H         1.655180         1.936236         0.997273
 H         1.899481         0.615707         2.239201
 H         4.241151         0.836559         0.483648
 H         3.685847        -1.877522         1.100660
 H         4.264113        -0.864753        -1.381598
 H         2.734874        -1.910333        -1.623936
 H         3.091561         1.611487        -2.201388
