19
Iteration:  1242charge 0 multiplicity 1
 C        -0.131265         0.023338        -0.282582
 C         1.274851        -0.087204         0.180545
 C         1.893525         0.954449         1.088957
 C         3.255496         0.486858         0.515045
 C         3.112831        -1.126412         0.447420
 C         3.175030        -1.017546        -1.044098
 C         2.513253         0.287785        -0.826236
 O         2.448074         1.270904        -1.811421
 O         1.750188        -1.402024         0.632483
 H        -0.737540         0.085430         0.558928
 H        -0.076860         0.992665        -0.935568
 H        -0.260262        -0.799981        -0.978700
 H         1.582934         1.856872         0.656030
 H         1.700719         1.035478         2.176782
 H         4.188297         0.808826         0.810939
 H         3.679995        -1.780471         1.121100
 H         4.241382        -0.810823        -1.490778
 H         2.589802        -1.667701        -1.712264
 H         3.316857         1.649501        -2.095179
