19
Iteration:  4458
 C        -0.090189         0.040216        -0.433293
 C         1.328026         0.043648         0.187167
 C         2.110816         0.925842         1.218427
 C         3.259797         0.446166         0.405813
 C         3.141550        -1.121164         0.460518
 C         3.132592        -1.196826        -1.171844
 C         2.472467         0.165365        -0.868881
 O         2.265660         1.342063        -1.761064
 O         1.811488        -1.214480         0.802183
 H        -0.758462        -0.258007         0.379515
 H        -0.357029         1.048019        -0.649208
 H        -0.262426        -0.707227        -1.331406
 H         1.979156         2.063483         1.186562
 H         2.129939         0.579182         2.266599
 H         4.228132         0.941314         0.613516
 H         3.809969        -1.725609         1.125139
 H         4.151618        -1.148597        -1.582761
 H         2.675680        -2.024120        -1.815310
 H         1.437106         1.092843        -2.224257
