19
Iteration:    26
 C        -0.044922         0.209301        -0.290052
 C         1.336876         0.002424         0.191657
 C         1.901101         0.927096         1.292873
 C         3.285377         0.445488         0.445127
 C         3.137738        -1.174800         0.452317
 C         3.035607        -1.138824        -1.085797
 C         2.536891         0.270247        -0.886105
 O         2.520973         1.207001        -2.009383
 O         1.696438        -1.326183         0.729718
 H        -0.718273        -0.107294         0.484185
 H        -0.218754         1.180862        -0.611662
 H        -0.241392        -0.442713        -1.080532
 H         1.553969         1.942526         1.207348
 H         1.749538         0.445667         2.284434
 H         4.211694         0.914617         0.608330
 H         3.790100        -1.820867         1.140499
 H         4.110801        -1.234172        -1.616857
 H         2.316223        -1.974493        -1.529836
 H         2.236057         2.041870        -1.663951
