19
Iteration:  1124charge 0 multiplicity 1
 C        -0.178838         0.010547        -0.248048
 C         1.269848         0.021502         0.247270
 C         1.890897         0.948330         1.213302
 C         3.287477         0.508176         0.530574
 C         3.068592        -1.119723         0.456792
 C         3.342417        -1.165934        -1.086052
 C         2.573912         0.285335        -0.934482
 O         2.422743         1.277954        -1.899175
 O         1.665508        -1.323229         0.601493
 H        -0.906364        -0.136522         0.624681
 H        -0.379559         0.943757        -0.872630
 H        -0.177280        -0.792612        -1.046841
 H         1.589259         1.966784         1.352575
 H         1.605755         0.531940         2.229432
 H         4.242573         0.932381         0.629247
 H         3.577826        -1.907246         1.032339
 H         4.342848        -1.000251        -1.282998
 H         2.906802        -1.831847        -1.776727
 H         3.256184         1.694410        -2.088184
