19
Iteration:   118
 C        -0.129976         0.152195        -0.199454
 C         1.260041         0.041253         0.171380
 C         1.951714         0.941330         1.174265
 C         3.269066         0.425740         0.522685
 C         3.163056        -1.162716         0.386699
 C         3.093722        -1.130701        -1.129009
 C         2.409044         0.238961        -0.884646
 O         2.635876         1.190033        -1.862843
 O         1.732069        -1.309383         0.719166
 H        -0.928135         0.239350         0.538177
 H        -0.213581         1.179112        -0.669892
 H        -0.461320        -0.567216        -1.013414
 H         1.720796         2.054411         0.975328
 H         1.582307         0.734632         2.179134
 H         4.319160         0.893254         0.555568
 H         3.742378        -1.823840         0.949643
 H         4.134233        -0.922267        -1.543061
 H         2.676646        -2.046861        -1.641858
 H         1.877572         1.623584        -2.335584
