19
Iteration:   440charge 0 multiplicity 1
 C        -0.140005         0.117046        -0.180980
 C         1.276048         0.056329         0.215674
 C         2.118691         0.959560         1.206648
 C         3.289789         0.356330         0.434351
 C         3.047949        -1.215407         0.471988
 C         3.263734        -1.133027        -1.112040
 C         2.571250         0.284367        -0.913196
 O         2.443766         1.301127        -1.870025
 O         1.547215        -1.272971         0.645144
 H        -0.883638        -0.172744         0.616568
 H        -0.305042         1.113976        -0.490410
 H        -0.450510        -0.546413        -1.021958
 H         1.919907         2.069849         1.115344
 H         2.041768         0.826697         2.297012
 H         4.332988         0.596988         0.411499
 H         3.564023        -1.900768         1.111745
 H         4.365120        -0.910669        -1.380605
 H         2.761347        -2.031211        -1.589609
 H         2.192792         0.940646        -2.746111
