19
Iteration:  3086
 C        -0.247601         0.057860        -0.140667
 C         1.260745         0.026575         0.149637
 C         1.976719         0.990067         1.188211
 C         3.250283         0.418475         0.476747
 C         3.235868        -1.112468         0.363505
 C         3.153647        -1.089225        -1.150388
 C         2.519989         0.271115        -0.845366
 O         2.419718         1.197751        -1.845496
 O         1.764297        -1.321482         0.644880
 H        -0.854015        -0.263195         0.836491
 H        -0.599564         1.163358        -0.279612
 H        -0.546243        -0.670604        -0.969381
 H         1.802571         1.979837         0.660706
 H         1.922473         1.000635         2.346486
 H         4.342448         0.839687         0.448522
 H         3.721142        -1.855983         1.015659
 H         4.183775        -1.135864        -1.659507
 H         2.577133        -1.977395        -1.553236
 H         3.235306         1.681942        -1.945399
