19
Iteration:  4951charge 0 multiplicity 1
 C        -0.084880         0.030872        -0.317355
 C         1.344080         0.062732         0.147057
 C         2.093092         1.138912         1.197979
 C         3.293340         0.440526         0.452655
 C         3.157873        -1.177636         0.433175
 C         3.241389        -1.071832        -1.118677
 C         2.548999         0.220830        -0.836833
 O         2.168037         1.119806        -1.836372
 O         1.716205        -1.321253         0.694107
 H        -0.630127        -0.167403         0.646303
 H        -0.481394         1.025794        -0.673907
 H        -0.279592        -0.796250        -0.896807
 H         2.112167         2.178853         0.801172
 H         1.682237         1.157925         2.250675
 H         4.415200         0.512306         0.506796
 H         3.800045        -1.904708         0.985377
 H         4.311966        -1.128286        -1.529956
 H         2.651308        -1.745581        -1.689574
 H         1.667981         1.886157        -1.428469
