19
Iteration:  1706charge 0 multiplicity 1
 C        -0.179604         0.098813        -0.314851
 C         1.297705        -0.115570         0.083239
 C         1.885146         0.947518         1.005270
 C         3.218776         0.453204         0.508506
 C         3.153932        -1.142349         0.499451
 C         3.352777        -1.019013        -1.109317
 C         2.549343         0.203588        -0.860035
 O         2.349103         1.331905        -1.693734
 O         1.699766        -1.391225         0.721039
 H        -0.893640        -0.353261         0.524109
 H        -0.101482         1.162395        -0.330893
 H        -0.310835        -0.396941        -1.343523
 H         1.716882         1.896740         0.523027
 H         1.788049         1.109064         2.122573
 H         4.204077         0.879908         0.556516
 H         3.773259        -1.784096         1.136490
 H         4.294840        -0.958925        -1.471851
 H         2.783145        -1.775426        -1.570359
 H         3.145604         1.583592        -2.129515
