19
Iteration:   684charge 0 multiplicity 1
 C        -0.076379         0.179833        -0.263290
 C         1.279738         0.032757         0.217234
 C         1.989057         0.924665         1.212439
 C         3.211765         0.455612         0.494446
 C         3.106730        -1.173220         0.433652
 C         3.090785        -1.150645        -1.122816
 C         2.525020         0.218183        -0.910596
 O         2.502980         1.254435        -1.913715
 O         1.734800        -1.339271         0.725774
 H        -0.796646         0.314161         0.464037
 H        -0.164127         1.061617        -0.904324
 H        -0.135949        -0.748200        -0.838877
 H         1.727291         1.974456         1.171788
 H         1.953667         0.517087         2.241237
 H         4.239579         0.881644         0.483432
 H         3.812381        -1.912212         0.850342
 H         4.194698        -1.101082        -1.413754
 H         2.485683        -1.949430        -1.740994
 H         1.888289         2.003215        -1.844418
