19
Iteration:  4094charge 0 multiplicity 1
 C        -0.110042         0.161384        -0.233049
 C         1.363589        -0.001745         0.166834
 C         1.968187         0.937747         1.161647
 C         3.245234         0.506248         0.434721
 C         3.204334        -1.165048         0.469326
 C         3.152629        -1.143185        -1.125923
 C         2.484105         0.233503        -0.905092
 O         2.203124         1.162124        -1.820893
 O         1.826983        -1.305310         0.670557
 H        -0.641526        -0.182476         0.607094
 H        -0.361657         1.241062        -0.416514
 H        -0.280367        -0.618479        -1.068284
 H         1.960499         1.997622         0.890217
 H         2.003842         0.674732         2.252818
 H         4.216827         1.023948         0.605244
 H         3.737378        -1.704780         1.210615
 H         4.062733        -0.696082        -1.695235
 H         2.644959        -2.015970        -1.518215
 H         2.998028         1.750771        -1.892707
