19
Iteration:  1991
 C        -0.024245         0.038224        -0.431880
 C         1.322187        -0.003139         0.136651
 C         1.922984         0.930867         1.265734
 C         3.234281         0.466427         0.498970
 C         3.139799        -1.119441         0.414534
 C         3.100111        -1.025702        -1.087579
 C         2.493238         0.294949        -0.801602
 O         2.322772         1.177290        -1.865330
 O         1.811732        -1.368063         0.731080
 H        -0.878454         0.121835         0.226933
 H        -0.083288         1.073753        -0.968565
 H        -0.288700        -0.710576        -1.208801
 H         1.835265         2.067029         1.177784
 H         1.741420         0.701951         2.328456
 H         4.183561         0.942177         0.698632
 H         3.832408        -1.910095         0.877040
 H         4.181090        -0.716165        -1.471386
 H         2.652324        -1.891716        -1.696893
 H         2.934100         1.912620        -1.557657
