19
Iteration:  4472charge 0 multiplicity 1
 C        -0.068833        -0.006333        -0.346854
 C         1.316216         0.021629         0.200910
 C         2.097585         1.005665         1.247186
 C         3.384931         0.459824         0.415629
 C         3.151155        -1.128948         0.391277
 C         3.125207        -1.116564        -1.119815
 C         2.465619         0.277919        -0.886094
 O         2.297490         1.243181        -1.779048
 O         1.698637        -1.277306         0.766236
 H        -0.962257        -0.326775         0.231425
 H        -0.354283         0.968608        -0.753847
 H        -0.003220        -0.688762        -1.121725
 H         1.855952         2.035778         1.332010
 H         1.959360         0.560930         2.217061
 H         4.404602         0.799075         0.192062
 H         3.727905        -1.818673         0.891826
 H         4.098402        -0.767289        -1.480825
 H         2.620406        -2.010428        -1.487246
 H         1.580845         1.173948        -2.439531
