19
Iteration:  1434charge 0 multiplicity 1
 C        -0.215948         0.020682        -0.268813
 C         1.274662         0.054096         0.130687
 C         1.885992         0.874958         1.240851
 C         3.165009         0.520708         0.486377
 C         3.188717        -1.069343         0.436491
 C         3.250570        -1.135095        -1.034197
 C         2.531680         0.314357        -0.858876
 O         2.484680         1.265478        -1.872783
 O         1.748929        -1.368683         0.584652
 H        -0.776123         0.281190         0.792983
 H        -0.388027         0.930429        -0.842070
 H        -0.472456        -0.849584        -0.818828
 H         1.615757         1.935380         1.217827
 H         1.642532         0.340108         2.187193
 H         4.145483         1.025580         0.695824
 H         3.718624        -1.784738         1.090700
 H         4.320117        -1.115364        -1.489598
 H         2.609088        -1.892496        -1.528149
 H         3.404624         1.352014        -2.098470
