19
Iteration:  3025charge 0 multiplicity 1
 C        -0.291493         0.067496        -0.123667
 C         1.233071        -0.011230         0.159833
 C         2.039701         0.931019         1.153433
 C         3.327116         0.440826         0.518613
 C         3.142122        -1.125853         0.441550
 C         3.285679        -1.065005        -1.170258
 C         2.499706         0.251363        -0.901912
 O         2.458613         1.260301        -1.815958
 O         1.717660        -1.302804         0.633491
 H        -0.854726         0.092132         0.735665
 H        -0.473824         0.914315        -0.696410
 H        -0.572956        -0.746390        -0.903411
 H         1.921785         2.005672         0.877719
 H         1.912598         0.856905         2.271153
 H         4.333008         0.907152         0.486793
 H         3.630591        -1.906920         1.008492
 H         4.309532        -0.960061        -1.423028
 H         2.936067        -1.954568        -1.705390
 H         1.738056         1.144005        -2.466894
