19
Iteration:  4242charge 0 multiplicity 1
 C        -0.190157         0.007209        -0.107743
 C         1.305190         0.008959         0.164150
 C         2.035417         0.929187         1.170646
 C         3.331444         0.467660         0.484341
 C         3.085401        -1.087391         0.453069
 C         3.237678        -1.059504        -1.128425
 C         2.512545         0.259431        -0.932425
 O         2.354770         1.203269        -1.991100
 O         1.741822        -1.313331         0.667496
 H        -0.701123        -0.291675         0.907050
 H        -0.503137         1.088504        -0.372952
 H        -0.320259        -0.817530        -0.797839
 H         1.828105         2.017929         1.059471
 H         1.945345         0.670382         2.199658
 H         4.313787         0.963536         0.735160
 H         3.585047        -1.821456         1.144878
 H         4.281214        -1.051494        -1.417438
 H         2.709150        -1.828269        -1.720747
 H         2.034235         2.054579        -1.622299
