19
Iteration:  4034charge 0 multiplicity 1
 C        -0.166771        -0.069383         0.008094
 C         1.332461         0.001589         0.106817
 C         1.953556         1.014849         1.100393
 C         3.308681         0.447059         0.510990
 C         3.156532        -1.162277         0.386290
 C         3.171843        -1.037282        -1.174634
 C         2.513447         0.277544        -0.842028
 O         2.434844         1.250098        -1.897345
 O         1.667851        -1.242300         0.652087
 H        -0.560203        -0.135656         1.070498
 H        -0.704164         0.699340        -0.478552
 H        -0.525002        -0.940961        -0.416347
 H         1.851182         2.089409         0.851837
 H         1.684151         0.908414         2.148101
 H         4.347460         0.706491         0.651205
 H         3.566942        -1.876557         1.132751
 H         4.121526        -0.811330        -1.638536
 H         2.777619        -1.915962        -1.761366
 H         3.085225         1.027432        -2.596608
