19
Iteration:  3397
 C        -0.271608        -0.069193        -0.033345
 C         1.252872         0.005367         0.182376
 C         2.023758         0.961854         1.170762
 C         3.320214         0.460908         0.495516
 C         3.071317        -1.198771         0.389291
 C         3.244718        -1.089412        -1.150332
 C         2.560225         0.329385        -0.864651
 O         2.522358         1.342641        -1.963303
 O         1.652863        -1.292296         0.676060
 H        -0.607271        -0.252642         0.916826
 H        -0.726548         0.874049        -0.371704
 H        -0.594907        -0.892204        -0.698410
 H         1.743737         2.027143         0.844072
 H         1.902166         0.872912         2.277794
 H         4.279177         0.948705         0.683365
 H         3.769278        -1.870270         0.996419
 H         4.291084        -0.822418        -1.463490
 H         2.847879        -1.823004        -1.842084
 H         2.402210         0.870479        -2.829864
