19
Iteration:  2788
 C        -0.064054         0.050033        -0.249597
 C         1.343749         0.003427         0.079295
 C         1.995069         0.967078         1.107738
 C         3.302139         0.399894         0.505511
 C         3.123455        -1.161312         0.431236
 C         3.250381        -1.081932        -1.089402
 C         2.508510         0.244294        -0.881786
 O         2.238361         1.281661        -1.826873
 O         1.732296        -1.330660         0.731598
 H        -0.665067        -0.284631         0.644274
 H        -0.337942         1.107741        -0.535745
 H        -0.330121        -0.400761        -1.150702
 H         1.750021         1.968174         0.869833
 H         1.672253         0.816286         2.164700
 H         4.252072         0.848506         0.534182
 H         3.624803        -2.034329         0.831685
 H         4.340570        -0.981435        -1.423898
 H         2.740512        -1.901163        -1.721677
 H         2.435400         2.116931        -1.331483
