19
Iteration:  1141charge 0 multiplicity 1
 C        -0.195313         0.062244        -0.326148
 C         1.305577        -0.053769         0.037872
 C         1.958088         0.845227         1.193350
 C         3.168776         0.432173         0.522964
 C         3.150081        -1.111485         0.480378
 C         3.268265        -1.078991        -1.022429
 C         2.582176         0.279423        -0.873395
 O         2.368646         1.330656        -1.863648
 O         1.698441        -1.290818         0.696126
 H        -0.656948        -0.282597         0.574688
 H        -0.262837         1.169190        -0.572744
 H        -0.492436        -0.513043        -1.178882
 H         1.812399         1.914890         0.939933
 H         1.854527         0.573797         2.237469
 H         4.214505         0.827054         0.761283
 H         3.765185        -1.670517         1.208742
 H         4.394055        -1.009433        -1.376006
 H         2.783717        -1.999165        -1.501514
 H         3.180292         1.391026        -2.370967
