19
Iteration:  2488
 C        -0.041538         0.002305        -0.419816
 C         1.316495        -0.052449         0.117962
 C         2.063192         1.033373         1.121291
 C         3.375696         0.459165         0.567678
 C         3.121908        -1.161320         0.441824
 C         3.235183        -1.097790        -1.063820
 C         2.560884         0.304236        -0.818142
 O         2.200629         1.308330        -1.693582
 O         1.661040        -1.329699         0.641377
 H        -0.838002        -0.231083         0.445086
 H        -0.473121         0.844138        -0.773591
 H        -0.080966        -0.826253        -1.134594
 H         1.978095         2.062184         0.804074
 H         1.941488         1.029293         2.202170
 H         4.367239         0.839324         0.727480
 H         3.623176        -1.965224         0.946418
 H         4.311437        -0.799154        -1.328650
 H         2.738216        -1.884503        -1.805705
 H         1.588585         0.961093        -2.409280
