19
Iteration:   256charge 0 multiplicity 1
 C        -0.143704         0.072682        -0.159807
 C         1.295663         0.084651         0.179369
 C         2.117641         0.988671         1.174882
 C         3.305435         0.376705         0.558195
 C         3.010122        -1.222770         0.473514
 C         3.125508        -1.024636        -1.082597
 C         2.661360         0.297463        -0.868713
 O         2.500993         1.192572        -1.950925
 O         1.590016        -1.285068         0.556501
 H        -0.669480        -0.184227         0.782074
 H        -0.482242         1.013986        -0.564827
 H        -0.219192        -0.773765        -0.910229
 H         2.119240         2.086766         1.107754
 H         1.905676         0.866327         2.220007
 H         4.387259         0.792452         0.737157
 H         3.442116        -2.062199         0.982181
 H         4.110846        -1.156932        -1.388414
 H         2.449316        -1.643737        -1.629951
 H         1.567943         1.204374        -2.137063
