19
Iteration:   636charge 0 multiplicity 1
 C        -0.096417         0.085073        -0.164045
 C         1.335298         0.036699         0.175611
 C         2.061640         1.030393         1.089947
 C         3.330615         0.396959         0.515577
 C         3.005413        -1.282487         0.448915
 C         3.205315        -1.179999        -1.106066
 C         2.573592         0.261536        -0.830743
 O         2.349201         1.364859        -1.830341
 O         1.624598        -1.310925         0.608296
 H        -0.672421        -0.190450         0.792036
 H        -0.429893         1.090976        -0.327457
 H        -0.323709        -0.585630        -0.983175
 H         2.074340         2.020168         0.457616
 H         1.819371         1.189573         2.170433
 H         4.344369         0.687038         0.798802
 H         3.521203        -1.910182         1.152818
 H         4.313421        -1.031501        -1.468848
 H         2.610405        -2.004551        -1.673882
 H         2.697388         1.229514        -2.720344
