19
Iteration:  3387
 C        -0.234230        -0.055370         0.020586
 C         1.286555         0.075758         0.085041
 C         1.915055         0.952942         1.123826
 C         3.254013         0.434344         0.520235
 C         3.100994        -1.201320         0.334549
 C         3.203757        -1.004139        -1.196734
 C         2.626494         0.276228        -0.934026
 O         2.518038         1.289022        -1.894731
 O         1.696087        -1.292667         0.762751
 H        -0.671255        -0.127275         0.980302
 H        -0.608933         0.940650        -0.370125
 H        -0.587743        -0.881191        -0.574562
 H         1.723479         2.028638         0.901239
 H         1.754938         0.685159         2.169478
 H         4.228221         0.894833         0.798256
 H         3.764746        -1.931109         0.953715
 H         4.297947        -0.873198        -1.439970
 H         2.662893        -1.674109        -1.836650
 H         2.707180         0.794259        -2.719448
