19
Iteration:   213
 C        -0.186242         0.185210        -0.262983
 C         1.297228        -0.043672         0.167356
 C         2.085325         0.907349         1.146160
 C         3.263965         0.407364         0.426189
 C         3.095715        -1.196497         0.475575
 C         3.174624        -1.118690        -1.075139
 C         2.476009         0.250802        -0.878458
 O         2.502199         1.252837        -1.912873
 O         1.670312        -1.342462         0.776301
 H        -1.003431         0.186388         0.414399
 H        -0.137861         1.190573        -0.616798
 H        -0.432422        -0.350874        -1.202946
 H         2.053004         1.976583         0.792496
 H         1.950886         0.907210         2.225790
 H         4.292051         0.966368         0.346941
 H         3.732129        -1.768014         1.114234
 H         4.139497        -1.102224        -1.621751
 H         2.458732        -1.787866        -1.621635
 H         2.236129         2.034946        -1.434463
