19
Iteration:  3149charge 0 multiplicity 1
 C        -0.015761         0.093853        -0.330783
 C         1.360690         0.092898         0.223919
 C         2.088624         0.993268         1.195812
 C         3.339360         0.334438         0.543547
 C         3.197887        -1.176241         0.425504
 C         3.071056        -1.063284        -1.147853
 C         2.456278         0.269717        -0.803589
 O         2.232155         1.103933        -1.857027
 O         1.738926        -1.263944         0.620140
 H        -0.885279        -0.124950         0.410092
 H        -0.187404         1.073077        -0.860620
 H        -0.090922        -0.640761        -1.017179
 H         1.695702         2.026658         0.888821
 H         1.950038         0.949230         2.394555
 H         4.286029         0.788562         0.761420
 H         3.842941        -1.991900         0.895422
 H         3.967436        -0.707475        -1.693036
 H         2.422019        -1.833004        -1.522454
 H         2.011880         2.010347        -1.553664
