19
Iteration:  2579charge 0 multiplicity 1
 C        -0.246306        -0.029741        -0.051415
 C         1.281397        -0.023923         0.072132
 C         1.939986         0.980343         1.032490
 C         3.234511         0.380584         0.566254
 C         3.140630        -1.230874         0.478280
 C         3.362667        -0.937097        -1.071936
 C         2.511372         0.232226        -0.890770
 O         2.465489         1.379011        -1.851249
 O         1.652050        -1.326019         0.605525
 H        -0.439974        -0.267988         1.058427
 H        -0.607995         0.927140        -0.224846
 H        -0.484565        -0.833422        -0.795561
 H         2.001603         1.997907         0.591768
 H         1.763002         1.119356         2.100287
 H         4.304928         0.737723         0.616938
 H         3.614435        -2.105095         0.998666
 H         4.409618        -0.607787        -1.232678
 H         3.051619        -1.736790        -1.872124
 H         2.338524         1.000754        -2.736599
