19
Iteration:   668
 C        -0.136332         0.112417        -0.275148
 C         1.309651         0.008799         0.181495
 C         2.020143         0.923255         1.239325
 C         3.311298         0.411847         0.422450
 C         3.105254        -1.187194         0.380539
 C         3.177408        -1.147334        -1.177168
 C         2.483189         0.231618        -0.844685
 O         2.532981         1.233253        -1.803509
 O         1.661398        -1.207325         0.720269
 H        -0.907732         0.183012         0.611370
 H        -0.340614         1.095129        -0.763699
 H        -0.547197        -0.648139        -0.955771
 H         1.887610         2.061282         1.007853
 H         1.843401         0.657851         2.297083
 H         4.273140         0.910129         0.536451
 H         3.571732        -1.807300         1.135387
 H         4.143860        -0.896993        -1.690100
 H         2.689724        -1.970504        -1.701029
 H         1.565190         1.292694        -2.071168
