19
Iteration:  4904charge 0 multiplicity 1
 C        -0.167418        -0.019493        -0.132641
 C         1.272811        -0.042295         0.198933
 C         1.935599         1.018023         1.147041
 C         3.271867         0.501448         0.480325
 C         3.177882        -1.092121         0.392728
 C         3.057599        -1.116377        -1.210864
 C         2.528184         0.306812        -0.824162
 O         2.467207         1.187744        -2.003930
 O         1.788401        -1.330058         0.779188
 H        -0.826153        -0.201548         0.687525
 H        -0.351010         1.020571        -0.431782
 H        -0.497110        -0.843672        -0.890718
 H         1.717962         2.053371         1.154322
 H         2.022200         0.689501         2.130151
 H         4.242740         1.099040         0.371353
 H         3.849692        -1.577919         1.076798
 H         4.031959        -1.094440        -1.712038
 H         2.641714        -2.086836        -1.516707
 H         2.687975         2.075575        -1.700584
