19
Iteration:  1405
 C        -0.137711        -0.009722        -0.282075
 C         1.255753        -0.051110         0.169244
 C         1.936951         0.932987         1.110304
 C         3.218377         0.422984         0.514611
 C         3.150704        -1.114525         0.450017
 C         3.275273        -1.013628        -1.122516
 C         2.540265         0.311283        -0.830683
 O         2.435803         1.290166        -1.839724
 O         1.666937        -1.351489         0.716659
 H        -0.771944        -0.054308         0.558286
 H        -0.371099         1.067337        -0.757634
 H        -0.498096        -0.703334        -1.045957
 H         1.742841         1.934789         0.741340
 H         1.530031         0.837495         2.165541
 H         4.201796         0.715662         0.715001
 H         3.737318        -1.811390         1.057948
 H         4.298229        -0.869005        -1.529045
 H         2.771348        -1.719474        -1.753084
 H         3.362714         1.376517        -2.092104
