19
Iteration:  3100
 C        -0.102339         0.079852        -0.156977
 C         1.320334        -0.048384         0.211377
 C         2.024193         0.987481         1.112821
 C         3.283361         0.481107         0.453787
 C         3.116662        -1.180164         0.432692
 C         3.180007        -1.146481        -1.127296
 C         2.443699         0.213496        -0.913864
 O         2.339033         1.270612        -1.859542
 O         1.732086        -1.309323         0.688831
 H        -0.741238        -0.307804         0.568611
 H        -0.287129         1.114336        -0.406145
 H        -0.350806        -0.517872        -1.208408
 H         1.880715         2.024740         0.998307
 H         1.817051         0.807109         2.081203
 H         4.297977         1.027203         0.490865
 H         3.765348        -1.796576         1.011516
 H         4.131401        -0.809619        -1.495465
 H         2.635920        -1.936853        -1.697292
 H         3.042382         1.899365        -1.569942
