19
Iteration:   292charge 0 multiplicity 1
 C        -0.164599         0.239187        -0.157382
 C         1.309568         0.036151         0.106215
 C         1.993297         0.997090         1.068005
 C         3.222526         0.338043         0.376718
 C         3.114749        -1.242970         0.466693
 C         3.216124        -1.144179        -1.126131
 C         2.507192         0.149719        -0.892159
 O         2.507841         1.283567        -1.687413
 O         1.690748        -1.244992         0.695835
 H        -0.760655         0.040018         0.656674
 H        -0.337987         1.273745        -0.430537
 H        -0.570994        -0.351421        -0.960168
 H         1.794531         2.070464         0.861040
 H         1.871761         0.528434         2.025005
 H         4.154918         1.039826         0.368861
 H         3.665535        -2.044275         0.921647
 H         4.364712        -1.094185        -1.286883
 H         2.739226        -1.991401        -1.735487
 H         2.046274         0.971256        -2.457704
