19
Iteration:  2744
 C        -0.223644        -0.048838        -0.067101
 C         1.294231        -0.069981         0.237686
 C         1.967569         0.946748         1.220481
 C         3.229634         0.451953         0.483651
 C         3.122797        -1.150606         0.411516
 C         3.181972        -1.020166        -1.053942
 C         2.494726         0.311783        -0.926972
 O         2.514953         1.367023        -1.964053
 O         1.712934        -1.338553         0.554008
 H        -0.732226        -0.250147         0.921279
 H        -0.613948         0.914105        -0.393060
 H        -0.502493        -0.713529        -0.873531
 H         1.753644         1.962627         0.977034
 H         1.880779         0.893298         2.334235
 H         4.225673         0.834517         0.499445
 H         3.652780        -1.828017         1.140341
 H         4.297858        -0.912127        -1.294742
 H         2.827553        -1.951132        -1.682060
 H         3.280466         1.083065        -2.545450
