19
Iteration:  3763charge 0 multiplicity 1
 C        -0.092355         0.011503        -0.183023
 C         1.287998        -0.004316         0.241795
 C         2.124139         1.045691         1.144510
 C         3.325670         0.480170         0.496049
 C         3.143173        -1.189160         0.405083
 C         3.183111        -1.056868        -1.145307
 C         2.500294         0.218384        -0.879969
 O         2.236780         1.211318        -1.833030
 O         1.692414        -1.276501         0.692832
 H        -0.965584        -0.062152         0.614734
 H        -0.315847         0.948626        -0.677897
 H        -0.254852        -0.761896        -0.911376
 H         1.897935         2.049347         0.853932
 H         1.996419         0.835710         2.144968
 H         4.344382         0.784384         0.316334
 H         3.583814        -1.959996         1.071592
 H         4.089738        -0.602114        -1.467698
 H         2.841766        -1.795417        -1.819904
 H         2.770618         1.075709        -2.629358
