19
Iteration:  2427
 C        -0.183302        -0.048565        -0.128387
 C         1.281058        -0.047721         0.171950
 C         1.859682         0.929958         1.214725
 C         3.208365         0.436610         0.528518
 C         3.165290        -1.091707         0.456845
 C         3.229843        -1.037040        -1.126007
 C         2.464477         0.332927        -0.849539
 O         2.640766         1.294493        -1.942842
 O         1.729414        -1.333584         0.608293
 H        -0.736984        -0.424035         0.727969
 H        -0.447021         0.986560        -0.496527
 H        -0.403540        -0.744603        -0.993758
 H         1.799200         2.015383         0.880603
 H         1.663263         0.714521         2.279148
 H         4.160911         1.050870         0.582924
 H         3.625827        -1.740222         1.182560
 H         4.116149        -0.780486        -1.612425
 H         2.680975        -1.762369        -1.686846
 H         1.851584         1.151129        -2.535095
