19
Iteration:   424charge 0 multiplicity 1
 C        -0.223791         0.265816        -0.202456
 C         1.285146         0.017798         0.131593
 C         2.004629         0.967031         1.105217
 C         3.305633         0.375940         0.519136
 C         3.104937        -1.217784         0.378549
 C         3.200645        -1.211803        -1.093020
 C         2.486659         0.157999        -0.889788
 O         2.477183         1.309083        -1.782910
 O         1.742952        -1.282522         0.696410
 H        -0.806650        -0.064940         0.619948
 H        -0.521644         1.339129        -0.434655
 H        -0.421855        -0.373791        -1.063452
 H         1.965035         2.031093         0.877622
 H         1.795041         0.860260         2.196481
 H         4.249352         0.985713         0.708466
 H         3.728764        -1.961182         0.974342
 H         4.282227        -1.029218        -1.343505
 H         2.813443        -1.974303        -1.800802
 H         1.958633         1.035408        -2.543523
