19
Iteration:  2295
 C        -0.121483        -0.051306        -0.358077
 C         1.318021         0.065215         0.125670
 C         2.069216         0.945204         1.185902
 C         3.257603         0.392523         0.575763
 C         3.098272        -1.107202         0.417805
 C         3.239571        -1.015457        -1.111850
 C         2.550555         0.309359        -0.807381
 O         2.373532         1.235119        -1.798690
 O         1.666984        -1.303534         0.666995
 H        -0.708032        -0.384701         0.386106
 H        -0.509144         0.946809        -0.675531
 H        -0.184096        -0.779312        -1.282383
 H         1.916399         2.059911         1.032924
 H         1.885777         0.682622         2.252303
 H         4.253717         0.854275         0.722317
 H         3.668186        -1.879489         0.911399
 H         4.194695        -0.670162        -1.327781
 H         2.890524        -1.779986        -1.768435
 H         1.531552         1.121122        -2.279194
