19
Iteration:   252charge 0 multiplicity 1
 C        -0.126763         0.064342        -0.169869
 C         1.302436         0.094495         0.159226
 C         2.084362         0.978990         1.202540
 C         3.327418         0.430582         0.571408
 C         3.016563        -1.248287         0.447559
 C         3.126447        -1.053366        -1.083684
 C         2.655484         0.294137        -0.868829
 O         2.504318         1.168502        -1.936628
 O         1.596261        -1.255125         0.564729
 H        -0.702820        -0.220140         0.804555
 H        -0.449219         1.066064        -0.585440
 H        -0.270221        -0.765456        -0.862563
 H         2.197749         2.053425         1.088826
 H         1.856698         0.766515         2.292500
 H         4.243491         0.860829         0.597286
 H         3.399432        -2.172423         1.011328
 H         4.144963        -1.137539        -1.519149
 H         2.333009        -1.576514        -1.632745
 H         1.540600         1.316556        -2.156949
