19
Iteration:  3524charge 0 multiplicity 1
 C        -0.149837         0.019135        -0.069207
 C         1.286906        -0.064111         0.186671
 C         1.907523         0.948838         1.117470
 C         3.263609         0.440171         0.463853
 C         3.147367        -1.195537         0.385530
 C         3.146440        -1.069872        -1.101015
 C         2.557826         0.347199        -0.888522
 O         2.471470         1.356946        -1.948950
 O         1.770406        -1.332834         0.736708
 H        -0.666434        -0.013796         0.962831
 H        -0.323134         0.941798        -0.551422
 H        -0.517597        -0.798671        -0.832140
 H         1.831886         1.988003         0.688642
 H         1.754716         0.821461         2.197263
 H         4.219600         0.891328         0.745933
 H         3.692082        -1.858671         1.052803
 H         4.203541        -0.995193        -1.472542
 H         2.578893        -1.832560        -1.671213
 H         1.971650         0.899370        -2.667650
