19
Iteration:  1538charge 0 multiplicity 1
 C        -0.101794        -0.029159        -0.386474
 C         1.288962        -0.018837         0.227196
 C         1.968988         0.939308         1.224591
 C         3.217998         0.474252         0.623185
 C         3.088668        -1.130754         0.429352
 C         3.158857        -1.055140        -1.099088
 C         2.525484         0.323531        -0.827076
 O         2.389182         1.263922        -1.964080
 O         1.750956        -1.328759         0.671821
 H        -0.882210        -0.429290         0.187635
 H        -0.203069         1.078128        -0.698293
 H         0.005238        -0.764318        -1.345548
 H         1.847590         2.052834         1.049009
 H         1.812936         0.732237         2.285387
 H         4.268796         0.770960         0.879565
 H         3.683549        -1.757949         1.130220
 H         4.089818        -0.961327        -1.478608
 H         2.661314        -1.903536        -1.560094
 H         3.227165         1.715218        -1.881369
