19
Iteration:   574charge 0 multiplicity 1
 C        -0.053302         0.192500        -0.196145
 C         1.279213         0.019495         0.268130
 C         2.064418         0.919391         1.231474
 C         3.222015         0.479712         0.467663
 C         3.041374        -1.148240         0.385393
 C         3.114670        -1.131974        -1.140308
 C         2.526773         0.287494        -0.881832
 O         2.528112         1.163020        -1.935867
 O         1.667435        -1.331126         0.670982
 H        -0.777549        -0.015857         0.587029
 H        -0.175825         1.218812        -0.606411
 H        -0.188393        -0.576215        -1.023345
 H         1.892022         1.995117         1.098876
 H         2.008518         0.527182         2.241622
 H         4.330568         0.766269         0.675448
 H         3.684493        -1.783230         1.007759
 H         4.105083        -1.148437        -1.629596
 H         2.444544        -1.880230        -1.701465
 H         1.736196         1.696321        -1.833614
