19
Iteration:  4377
 C        -0.198194         0.004867         0.031038
 C         1.270255        -0.006217         0.107366
 C         2.003293         0.888400         1.250711
 C         3.226890         0.489056         0.408863
 C         3.114353        -1.083589         0.407579
 C         3.250936        -1.065997        -1.124315
 C         2.525399         0.225058        -0.971807
 O         2.558107         1.320614        -1.968032
 O         1.682767        -1.307862         0.682380
 H        -0.725084        -0.037769         1.023541
 H        -0.674603         0.953274        -0.457588
 H        -0.639270        -0.898889        -0.548422
 H         1.711945         1.932201         1.158585
 H         1.950764         0.481423         2.318305
 H         4.146052         1.043869         0.359915
 H         3.669706        -1.669738         1.130282
 H         4.304705        -1.016739        -1.433408
 H         2.616632        -1.893183        -1.371879
 H         2.005870         1.022043        -2.736201
