19
Iteration:  4280
 C        -0.107434         0.044678        -0.309664
 C         1.296269         0.011397         0.227227
 C         2.092163         0.965209         1.153031
 C         3.337261         0.453767         0.525919
 C         3.172750        -1.088155         0.440106
 C         3.088105        -1.118739        -1.190045
 C         2.454011         0.236430        -0.871360
 O         2.312432         1.213729        -1.776704
 O         1.834971        -1.288445         0.729977
 H        -0.963636        -0.167314         0.203704
 H        -0.319559         1.032570        -0.700493
 H        -0.207183        -0.560602        -1.248777
 H         1.885123         1.933668         0.690206
 H         1.869423         0.919768         2.282695
 H         4.304863         0.880171         0.454717
 H         3.789390        -1.857501         0.913363
 H         4.019390        -0.856276        -1.746259
 H         2.445707        -1.936000        -1.565488
 H         1.356348         1.284774        -2.033693
