19
Iteration:   807charge 0 multiplicity 1
 C        -0.224138         0.006099        -0.296465
 C         1.244746         0.010902         0.140068
 C         2.047977         0.942810         1.243464
 C         3.335082         0.426188         0.525380
 C         3.107259        -1.119345         0.425132
 C         3.192414        -1.024244        -1.053885
 C         2.586040         0.295312        -0.822247
 O         2.443858         1.204399        -1.977459
 O         1.623860        -1.280064         0.673848
 H        -0.692971        -0.522415         0.522147
 H        -0.748880         0.931441        -0.537362
 H        -0.253942        -0.726162        -1.062762
 H         1.798100         1.924648         1.020501
 H         1.966804         0.700952         2.287419
 H         4.369596         0.615767         0.692172
 H         3.684689        -1.855656         0.999505
 H         4.236419        -0.917251        -1.362970
 H         2.630836        -1.832479        -1.652128
 H         2.975364         1.974638        -1.798084
