19
Iteration:   176
 C        -0.075804         0.125307        -0.231156
 C         1.307722         0.125937         0.060622
 C         2.058996         0.998954         1.142971
 C         3.271435         0.286681         0.559523
 C         3.085548        -1.214003         0.459501
 C         3.250664        -1.152305        -1.156415
 C         2.558116         0.216795        -0.847531
 O         2.291578         1.214834        -1.785026
 O         1.637485        -1.198261         0.648669
 H        -0.617568        -0.099523         0.793568
 H        -0.303282         1.154371        -0.692395
 H        -0.336737        -0.691368        -0.924674
 H         2.122244         1.981541         0.720173
 H         1.601674         0.880615         2.154301
 H         4.194302         0.735376         0.631846
 H         3.590413        -1.841254         1.281522
 H         4.194252        -1.112845        -1.541656
 H         2.676619        -1.891709        -1.590691
 H         3.051483         1.505817        -2.305868
