19
Iteration:   816
 C        -0.232791        -0.015851        -0.308212
 C         1.232732         0.010418         0.156135
 C         2.138322         0.989210         1.266679
 C         3.305191         0.463035         0.556858
 C         3.084056        -1.196461         0.469391
 C         3.279007        -1.088200        -1.074692
 C         2.582070         0.321096        -0.923744
 O         2.385972         1.257630        -1.941283
 O         1.603055        -1.302716         0.669046
 H        -0.725754        -0.446948         0.494713
 H        -0.752369         0.912849        -0.677930
 H        -0.437928        -0.700410        -1.086210
 H         1.828127         2.062205         1.138771
 H         2.020550         0.706990         2.399260
 H         4.246798         0.844992         0.680637
 H         3.552376        -1.836998         1.196369
 H         4.410184        -1.048529        -1.290468
 H         2.742696        -1.843592        -1.914303
 H         3.148264         1.806655        -2.103649
