19
Iteration:  4215
 C        -0.296990         0.024618         0.034110
 C         1.265215         0.057764         0.127786
 C         1.965350         1.009283         1.192287
 C         3.323214         0.483767         0.473986
 C         3.212531        -1.093619         0.428805
 C         3.313939        -1.081021        -1.154603
 C         2.443418         0.212443        -0.892065
 O         2.425940         1.158512        -1.938455
 O         1.710739        -1.345510         0.549803
 H        -0.725791        -0.110408         0.954885
 H        -0.584584         0.954407        -0.325793
 H        -0.469425        -0.910748        -0.568428
 H         1.761511         2.042973         0.958421
 H         1.800967         0.711278         2.289448
 H         4.223969         1.049026         0.435728
 H         3.531529        -1.885142         1.110685
 H         4.289016        -0.694205        -1.589283
 H         2.881600        -1.979930        -1.637620
 H         2.909756         1.983630        -1.751944
