19
Iteration:  1782
 C        -0.139370         0.046231        -0.338914
 C         1.302290        -0.084279         0.172022
 C         1.855781         0.940665         1.191491
 C         3.211669         0.465842         0.542954
 C         3.181757        -1.177814         0.467044
 C         3.249014        -1.016662        -1.146628
 C         2.534878         0.294374        -0.864399
 O         2.415965         1.305194        -1.845703
 O         1.703390        -1.338585         0.683223
 H        -0.762099         0.044167         0.559484
 H        -0.246045         0.945026        -0.909506
 H        -0.304900        -0.873045        -0.990878
 H         1.830213         1.998305         1.121570
 H         1.779077         0.686414         2.296941
 H         4.133014         0.989157         0.683080
 H         3.585799        -1.903960         1.194084
 H         4.269545        -1.002940        -1.445524
 H         2.720899        -1.838272        -1.626475
 H         3.253342         1.404158        -2.371603
