19
Iteration:  4730charge 0 multiplicity 1
 C        -0.189081        -0.025762        -0.017846
 C         1.297761        -0.051239         0.158268
 C         1.945650         0.925469         1.011263
 C         3.264450         0.492711         0.445762
 C         3.143762        -1.128540         0.343510
 C         3.143382        -1.092682        -1.109523
 C         2.524881         0.290743        -0.907228
 O         2.510443         1.303562        -1.818679
 O         1.746390        -1.296186         0.742694
 H        -0.673167        -0.060025         0.907951
 H        -0.349324         0.976050        -0.335535
 H        -0.669931        -0.689293        -0.800310
 H         1.931992         1.955353         0.535490
 H         1.709021         1.010772         2.100906
 H         4.269230         0.944055         0.468835
 H         3.847252        -1.616211         0.953869
 H         4.165316        -1.086565        -1.405970
 H         2.492765        -1.912366        -1.441459
 H         2.130544         0.967159        -2.661546
