19
Iteration:   404charge 0 multiplicity 1
 C        -0.129930         0.218883        -0.217358
 C         1.327662        -0.062332         0.100524
 C         1.948176         0.982522         1.049781
 C         3.243816         0.391240         0.423188
 C         3.195254        -1.154789         0.474873
 C         3.122032        -1.100233        -1.141936
 C         2.575649         0.198235        -0.856067
 O         2.518670         1.257980        -1.714240
 O         1.663585        -1.339311         0.727205
 H        -0.666879         0.146703         0.671682
 H        -0.095388         1.302054        -0.302633
 H        -0.546128        -0.153784        -1.056036
 H         1.885912         1.962305         0.603637
 H         1.600124         0.843789         2.104569
 H         4.247930         0.746266         0.524885
 H         3.703076        -1.908574         1.147815
 H         4.055518        -1.092525        -1.938557
 H         2.427942        -1.937100        -1.615016
 H         1.615908         1.239253        -2.143298
