19
Iteration:  1010charge 0 multiplicity 1
 C         0.029511         0.011660        -0.295988
 C         1.353233        -0.030861         0.130666
 C         1.908833         0.954911         1.227129
 C         3.283887         0.442339         0.609231
 C         3.083254        -1.177943         0.482574
 C         3.197158        -0.971070        -1.097301
 C         2.599972         0.308945        -0.903708
 O         2.399374         1.137787        -1.926512
 O         1.621906        -1.272549         0.630094
 H        -0.666700        -0.297968         0.481894
 H        -0.442071         1.104422        -0.422933
 H        -0.035961        -0.474257        -1.294042
 H         1.618282         1.997116         1.172805
 H         1.693176         0.666774         2.205082
 H         4.327890         0.687049         1.061979
 H         3.537999        -2.027200         0.954862
 H         4.231534        -0.744454        -1.398662
 H         2.655455        -1.545955        -1.813478
 H         1.799880         1.862933        -1.847886
