19
Iteration:  4050
 C        -0.223489        -0.029760         0.026848
 C         1.238484         0.063104         0.120274
 C         2.004353         0.980545         1.093697
 C         3.258789         0.365134         0.520086
 C         3.049610        -1.148542         0.400966
 C         3.288435        -1.037423        -1.119516
 C         2.578529         0.256309        -0.955156
 O         2.373628         1.275633        -1.934175
 O         1.749624        -1.279613         0.698244
 H        -0.618398        -0.092477         1.018361
 H        -0.585367         1.005486        -0.299027
 H        -0.556719        -1.055487        -0.452902
 H         1.901351         2.025282         0.709148
 H         1.666193         0.781954         2.149788
 H         4.210031         0.949239         0.602658
 H         3.739077        -1.904555         0.723260
 H         4.454658        -1.032930        -1.142603
 H         2.849424        -1.727402        -1.833965
 H         3.152334         1.259342        -2.555863
