19
Iteration:  1926
 C        -0.199381        -0.037567        -0.158051
 C         1.302072        -0.017127         0.090990
 C         1.935808         1.054650         1.070125
 C         3.246901         0.371781         0.554727
 C         3.069826        -1.211953         0.384427
 C         3.424653        -1.049687        -1.097620
 C         2.621264         0.265670        -0.881141
 O         2.351095         1.282719        -1.706827
 O         1.616301        -1.288903         0.597256
 H        -0.677867        -0.343081         0.794898
 H        -0.533203         1.001474        -0.556000
 H        -0.266733        -0.646449        -0.899237
 H         2.135525         2.109610         0.653528
 H         1.489123         1.163587         2.085467
 H         4.091511         0.986187         0.825433
 H         3.681753        -1.820273         1.146919
 H         4.501489        -0.714772        -1.262587
 H         3.145583        -1.874246        -1.811890
 H         2.659497         1.258409        -2.588912
