19
Iteration:   978
 C        -0.334299         0.079173        -0.327163
 C         1.274349        -0.019638         0.184727
 C         1.946249         0.991133         1.237967
 C         3.221408         0.442053         0.510641
 C         3.206596        -1.122496         0.492109
 C         3.330283        -1.139125        -1.089873
 C         2.518636         0.214727        -0.902249
 O         2.520243         1.249229        -1.857368
 O         1.736381        -1.287435         0.594964
 H        -1.005387        -0.523362         0.267529
 H        -0.491065         1.274772        -0.371997
 H        -0.584855        -0.239981        -1.368947
 H         1.858011         2.075547         1.210622
 H         1.843343         0.691660         2.298199
 H         4.273700         0.626334         0.726565
 H         3.689546        -1.924638         1.029161
 H         4.340889        -1.011076        -1.404812
 H         2.890865        -1.873871        -1.621435
 H         1.655696         1.698527        -1.651742
