19
Iteration:  4256charge 0 multiplicity 1
 C        -0.058590         0.011501        -0.165538
 C         1.348198         0.005268         0.166362
 C         1.987716         0.988776         1.193444
 C         3.258471         0.489064         0.494453
 C         3.167537        -1.225179         0.388978
 C         3.145629        -1.072312        -1.165724
 C         2.549502         0.317269        -0.888945
 O         2.357325         1.200038        -1.963687
 O         1.720711        -1.319916         0.808034
 H        -0.785276        -0.199282         0.620167
 H        -0.390160         1.066980        -0.564009
 H        -0.419347        -0.537982        -1.028795
 H         1.701052         2.015399         0.880480
 H         1.703110         0.710231         2.256087
 H         4.314447         0.783464         0.452974
 H         3.949384        -1.811244         0.771818
 H         4.137838        -0.700786        -1.572301
 H         2.650012        -1.846056        -1.699808
 H         1.641331         1.792648        -1.707390
