19
Iteration:  3471charge 0 multiplicity 1
 C        -0.006067         0.102704        -0.333149
 C         1.345979        -0.038872         0.198062
 C         2.073439         1.034576         1.164220
 C         3.355430         0.412565         0.536089
 C         3.150234        -1.131074         0.452400
 C         3.163608        -1.061991        -1.145169
 C         2.513400         0.206709        -0.860550
 O         2.207426         1.273851        -1.829541
 O         1.705144        -1.368830         0.712744
 H        -0.780321        -0.236060         0.408681
 H        -0.225900         1.056534        -0.793305
 H        -0.101560        -0.691165        -1.273423
 H         1.904180         2.116353         0.757090
 H         1.922118         1.115837         2.284595
 H         4.315164         0.888635         0.574549
 H         3.593483        -1.955658         1.023842
 H         4.221484        -0.959256        -1.497282
 H         2.673665        -1.946756        -1.563482
 H         1.252421         1.367762        -1.996222
