19
Iteration:  3655charge 0 multiplicity 1
 C        -0.111215         0.106845        -0.247521
 C         1.367088         0.018736         0.131152
 C         2.065402         0.962016         1.105820
 C         3.357076         0.579803         0.453457
 C         3.155881        -1.169708         0.469178
 C         3.232331        -1.072157        -1.133149
 C         2.614394         0.248416        -0.900075
 O         2.226100         1.207961        -1.858866
 O         1.638336        -1.367119         0.762775
 H        -0.607141        -0.218057         0.668622
 H        -0.371398         1.079164        -0.485856
 H        -0.308411        -0.639915        -0.955390
 H         1.685036         1.996745         1.133860
 H         1.841923         0.565441         2.053446
 H         4.376729         0.888953         0.646975
 H         3.655642        -2.003876         1.015119
 H         4.321139        -1.177550        -1.437083
 H         2.685995        -1.872064        -1.633140
 H         1.247195         1.376632        -1.824861
