19
Iteration:  2365
 C        -0.156790         0.046334        -0.217599
 C         1.259210        -0.060032         0.123361
 C         1.904290         1.003656         1.079512
 C         3.188806         0.488895         0.478312
 C         3.115649        -1.156728         0.364663
 C         3.294398        -1.092042        -1.122043
 C         2.479441         0.194904        -0.847860
 O         2.493858         1.370690        -1.703591
 O         1.799733        -1.396953         0.682527
 H        -0.942655         0.060944         0.728033
 H        -0.287031         1.078165        -0.778259
 H        -0.395538        -0.717070        -0.919072
 H         1.776523         2.015971         0.726165
 H         1.554796         0.941999         2.120338
 H         4.126106         1.041933         0.672166
 H         3.736753        -1.769695         1.086627
 H         4.415735        -0.926502        -1.340481
 H         2.902340        -2.034441        -1.555002
 H         1.928975         1.161360        -2.505284
