19
Iteration:   673
 C        -0.121135         0.142998        -0.261535
 C         1.315081         0.027734         0.204201
 C         2.007706         0.911670         1.249139
 C         3.254817         0.428662         0.421416
 C         3.091334        -1.190449         0.394582
 C         3.154048        -1.166416        -1.181467
 C         2.487866         0.242230        -0.890780
 O         2.544993         1.230039        -1.827902
 O         1.702058        -1.228635         0.731514
 H        -0.808941         0.128857         0.508541
 H        -0.165973         1.033892        -0.903815
 H        -0.471414        -0.659235        -0.935862
 H         1.717469         1.950621         1.095199
 H         1.928884         0.673431         2.327230
 H         4.189412         1.023956         0.596248
 H         3.526466        -1.879666         1.143346
 H         4.131084        -0.884108        -1.683652
 H         2.656929        -2.056315        -1.773554
 H         1.603055         1.422359        -1.862823
