19
Iteration:    22charge 0 multiplicity 1
 C        -0.015767         0.190958        -0.279617
 C         1.367010        -0.000423         0.162359
 C         1.874199         0.967650         1.300737
 C         3.322276         0.437139         0.434951
 C         3.139757        -1.191335         0.474907
 C         3.047749        -1.156980        -1.104984
 C         2.514798         0.261378        -0.860552
 O         2.521217         1.228884        -2.026226
 O         1.669273        -1.356080         0.733177
 H        -0.696084        -0.046317         0.579735
 H        -0.229126         1.263439        -0.585527
 H        -0.269599        -0.487845        -1.133297
 H         1.469863         1.992809         1.378059
 H         1.636367         0.486544         2.245960
 H         4.308199         0.954485         0.438394
 H         3.703804        -1.809867         1.137483
 H         3.934205        -1.113747        -1.590943
 H         2.429449        -1.903123        -1.434227
 H         2.199097         2.124643        -1.693945
