19
Iteration:  3601charge 0 multiplicity 1
 C        -0.156068        -0.013025        -0.224265
 C         1.314844         0.012296         0.195795
 C         2.046574         1.013909         1.161127
 C         3.287381         0.437779         0.518876
 C         3.144839        -1.122721         0.390877
 C         3.100899        -1.054816        -1.167206
 C         2.564860         0.278079        -0.820723
 O         2.382050         1.210979        -1.856241
 O         1.771650        -1.287868         0.692938
 H        -0.767841        -0.177022         0.666832
 H        -0.338873         0.991221        -0.494032
 H        -0.266279        -0.789131        -1.045367
 H         1.790675         2.025304         0.701757
 H         1.928426         0.914702         2.246242
 H         4.282073         0.851498         0.581273
 H         3.683688        -1.900062         0.975033
 H         4.152152        -0.969017        -1.598780
 H         2.516597        -1.813547        -1.713761
 H         1.454334         1.014795        -2.163318
