19
Iteration:  1704
 C        -0.170817         0.103755        -0.312136
 C         1.301871        -0.105796         0.054841
 C         1.875786         0.944080         1.019518
 C         3.228556         0.445686         0.518463
 C         3.163957        -1.142680         0.484424
 C         3.338425        -1.014735        -1.105419
 C         2.521837         0.212274        -0.847451
 O         2.338362         1.326950        -1.694844
 O         1.707856        -1.398224         0.731457
 H        -0.883147        -0.308036         0.417405
 H        -0.126023         1.114538        -0.366889
 H        -0.329897        -0.410152        -1.416907
 H         1.808794         1.924166         0.477630
 H         1.833303         1.142885         2.125508
 H         4.276542         0.868775         0.578304
 H         3.785219        -1.749104         1.121585
 H         4.339238        -0.975240        -1.409612
 H         2.785760        -1.841824        -1.544010
 H         3.172171         1.591451        -2.113916
