19
Iteration:  1407charge 0 multiplicity 1
 C        -0.167231         0.006087        -0.276282
 C         1.262124        -0.077406         0.178993
 C         1.923944         0.929814         1.124946
 C         3.220689         0.424081         0.529582
 C         3.161189        -1.101771         0.446003
 C         3.268014        -1.029929        -1.115726
 C         2.541689         0.305911        -0.837457
 O         2.451722         1.304304        -1.857776
 O         1.669442        -1.353392         0.714434
 H        -0.781284         0.003325         0.529818
 H        -0.332928         1.033350        -0.748200
 H        -0.478187        -0.758805        -1.093774
 H         1.648161         1.932704         0.731761
 H         1.648653         0.841401         2.194638
 H         4.233814         0.795826         0.703116
 H         3.693010        -1.807711         1.074467
 H         4.346204        -0.821395        -1.617300
 H         2.720817        -1.778787        -1.767293
 H         3.360287         1.396135        -2.115498
