19
Iteration:  4316charge 0 multiplicity 1
 C        -0.116596         0.003261        -0.204630
 C         1.381815         0.016848         0.151989
 C         2.104294         0.929931         1.109139
 C         3.318298         0.463637         0.412420
 C         3.023288        -1.162969         0.450585
 C         3.221312        -1.154868        -1.132551
 C         2.543739         0.193756        -0.922699
 O         2.221230         1.365886        -1.730634
 O         1.716085        -1.216987         0.729665
 H        -0.717736        -0.259178         0.686016
 H        -0.227805         0.955610        -0.633655
 H        -0.099794        -0.783162        -0.978145
 H         1.808669         1.967743         0.866358
 H         1.920096         0.803946         2.154354
 H         4.368690         0.885932         0.477832
 H         3.797679        -1.802285         1.052460
 H         4.244084        -1.098999        -1.477378
 H         2.862420        -2.090825        -1.695895
 H         1.854061         1.106784        -2.606075
