19
Iteration:   491charge 0 multiplicity 1
 C        -0.161281         0.218244        -0.216899
 C         1.286337        -0.013928         0.193421
 C         1.991415         0.924283         1.158365
 C         3.277330         0.379095         0.498165
 C         3.153003        -1.146868         0.434208
 C         3.050624        -1.202180        -1.225235
 C         2.504782         0.247506        -0.890842
 O         2.506071         1.317459        -1.813259
 O         1.761029        -1.305975         0.758705
 H        -0.871193         0.206570         0.611148
 H        -0.312354         1.181307        -0.732991
 H        -0.510375        -0.537036        -0.867416
 H         1.892217         1.952157         0.875559
 H         1.585416         0.977337         2.193026
 H         4.290631         0.684667         0.576119
 H         3.761510        -1.884232         1.076039
 H         4.115926        -1.145111        -1.583340
 H         2.415562        -1.929078        -1.754256
 H         2.664134         0.971353        -2.733318
