19
Iteration:   526
 C        -0.137143         0.173972        -0.209260
 C         1.321993         0.045221         0.152132
 C         2.085514         1.022492         1.161554
 C         3.354705         0.369489         0.431283
 C         3.055467        -1.238679         0.492623
 C         3.208161        -1.218980        -1.138702
 C         2.549576         0.179099        -0.907993
 O         2.331575         1.340093        -1.717381
 O         1.623904        -1.258232         0.627919
 H        -0.717843         0.110615         0.710573
 H        -0.283535         1.072377        -0.695967
 H        -0.388641        -0.634294        -0.813658
 H         2.000718         1.990274         0.635523
 H         1.884010         0.926810         2.248385
 H         4.359455         0.665026         0.490687
 H         3.676535        -1.843647         1.140588
 H         4.359655        -1.024060        -1.376466
 H         2.944348        -2.085669        -1.836807
 H         2.138681         1.059671        -2.651065
