19
Iteration:  3615charge 0 multiplicity 1
 C        -0.094368         0.117074        -0.280705
 C         1.319569         0.016834         0.244392
 C         2.011281         0.991649         1.178784
 C         3.395659         0.469907         0.536012
 C         3.246293        -1.200396         0.424242
 C         3.149111        -1.091426        -1.145677
 C         2.361779         0.247655        -0.859141
 O         2.314196         1.171432        -1.829551
 O         1.783853        -1.308278         0.692574
 H        -0.892789        -0.253766         0.312940
 H        -0.528548         1.010513        -0.914987
 H        -0.264741        -0.726555        -1.224681
 H         2.076948         2.121360         0.857442
 H         1.625559         1.021661         2.303850
 H         4.327304         0.987046         0.600126
 H         3.972735        -1.834399         0.957395
 H         3.982007        -0.752564        -1.811509
 H         2.509549        -1.872470        -1.631667
 H         1.485585         1.402043        -2.228382
