19
Iteration:  4634
 C        -0.106928         0.063676        -0.340246
 C         1.347267        -0.022588         0.136326
 C         2.121534         0.987827         1.129157
 C         3.309850         0.436465         0.391399
 C         3.192750        -1.130115         0.493268
 C         3.191314        -1.177486        -1.134002
 C         2.435107         0.189113        -0.873069
 O         2.267896         1.320394        -1.703866
 O         1.742653        -1.321229         0.781959
 H        -0.885905        -0.014994         0.437016
 H        -0.098891         1.126190        -0.706971
 H        -0.207570        -0.546796        -1.284774
 H         1.868789         2.025966         0.824717
 H         1.711142         0.837180         2.140518
 H         4.153473         1.119780         0.194813
 H         3.754000        -1.654612         1.199944
 H         4.095125        -0.742763        -1.547895
 H         2.632327        -1.888802        -1.707385
 H         1.449711         1.118485        -2.227204
