19
Iteration:   764charge 0 multiplicity 1
 C        -0.233472         0.085056        -0.238395
 C         1.243051        -0.010652         0.149306
 C         1.973232         0.954347         1.101157
 C         3.316699         0.427710         0.467056
 C         3.114469        -1.140192         0.434244
 C         3.195884        -1.121398        -1.086158
 C         2.631218         0.295675        -0.893797
 O         2.524330         1.293166        -1.787931
 O         1.695841        -1.355885         0.701934
 H        -0.962338        -0.170040         0.549430
 H        -0.358398         1.164639        -0.491859
 H        -0.586911        -0.471617        -1.087420
 H         1.854231         1.929884         0.812204
 H         1.719268         0.816559         2.122103
 H         4.310450         0.817286         0.612263
 H         3.761320        -1.780224         1.051270
 H         4.163938        -1.145897        -1.518128
 H         2.585500        -1.897353        -1.526649
 H         1.634524         1.386887        -2.151778
