19
Iteration:  3651charge 0 multiplicity 1
 C        -0.111246         0.116808        -0.298009
 C         1.368912        -0.038063         0.159145
 C         2.073424         0.951821         1.139116
 C         3.339584         0.594295         0.420638
 C         3.113219        -1.166806         0.503924
 C         3.237463        -1.082333        -1.143739
 C         2.614550         0.260671        -0.924655
 O         2.208472         1.197345        -1.830684
 O         1.673484        -1.343588         0.765510
 H        -0.688470        -0.160211         0.691465
 H        -0.292684         1.250783        -0.494006
 H        -0.244186        -0.669310        -1.069107
 H         1.782272         1.966169         1.079753
 H         1.869477         0.466135         2.123841
 H         4.449910         0.875461         0.603356
 H         3.715060        -1.880750         1.083033
 H         4.213887        -1.217620        -1.488604
 H         2.688575        -1.836567        -1.730832
 H         1.291589         1.443908        -1.840553
