19
Iteration:  3212charge 0 multiplicity 1
 C        -0.207013         0.014035         0.100894
 C         1.276593         0.022945         0.137979
 C         2.000829         1.077044         1.081655
 C         3.230498         0.477585         0.513489
 C         3.122472        -1.193307         0.391984
 C         3.229942        -1.116785        -1.120245
 C         2.488821         0.236841        -0.920608
 O         2.591502         1.198438        -1.852191
 O         1.665381        -1.316380         0.493573
 H        -0.406519        -0.120020         1.202600
 H        -0.576849         0.974508        -0.265822
 H        -0.754281        -0.758717        -0.548731
 H         1.783675         2.049915         0.791370
 H         1.901118         1.004581         2.110127
 H         4.224054         0.858269         0.462478
 H         3.724878        -1.901531         1.075428
 H         4.196498        -0.814750        -1.574118
 H         2.814145        -1.916762        -1.702157
 H         1.811083         1.819803        -1.852009
