19
Iteration:  1168charge 0 multiplicity 1
 C        -0.126447         0.073486        -0.347296
 C         1.305323        -0.003332         0.193772
 C         1.871051         1.049495         1.107037
 C         3.238423         0.460066         0.595600
 C         3.127379        -1.207023         0.393521
 C         3.291755        -1.100229        -1.142065
 C         2.584360         0.252592        -0.747842
 O         2.300566         1.220992        -1.730724
 O         1.753062        -1.312072         0.602205
 H        -0.887313        -0.447639         0.345145
 H        -0.203283         1.175029        -0.569308
 H        -0.017857        -0.301699        -1.416339
 H         1.667616         2.007205         0.619875
 H         1.647545         1.142505         2.195172
 H         4.217195         0.846430         0.780903
 H         3.648687        -1.852518         1.094710
 H         4.288147        -0.984775        -1.372689
 H         2.892649        -1.956230        -1.614396
 H         2.906906         1.060790        -2.438431
