19
Iteration:  1905
 C        -0.271261         0.003099        -0.177642
 C         1.291306        -0.062355         0.094873
 C         1.885791         0.969784         1.062339
 C         3.290408         0.420559         0.533368
 C         3.078449        -1.153582         0.513521
 C         3.342105        -1.042088        -1.115081
 C         2.547930         0.283723        -0.846445
 O         2.456935         1.363032        -1.806119
 O         1.728768        -1.355659         0.623551
 H        -0.707936        -0.358498         0.837910
 H        -0.609271         1.112553        -0.387882
 H        -0.603922        -0.546591        -0.967654
 H         1.636369         1.971986         0.573290
 H         1.661765         0.918594         2.145451
 H         4.257157         0.903156         0.736758
 H         3.653807        -1.978990         1.025575
 H         4.360462        -0.839231        -1.376958
 H         2.885434        -1.827042        -1.708939
 H         3.044681         1.032483        -2.540417
