19
Iteration:  4335charge 0 multiplicity 1
 C        -0.178417         0.040638        -0.174770
 C         1.286514        -0.010312         0.175757
 C         2.010668         1.029428         1.089295
 C         3.296439         0.386446         0.494579
 C         3.201897        -1.157731         0.409090
 C         3.210908        -1.063331        -1.162060
 C         2.474099         0.289240        -0.883033
 O         2.370539         1.283016        -1.802579
 O         1.742007        -1.324911         0.745587
 H        -0.677664        -0.038815         0.751361
 H        -0.533298         1.030661        -0.405927
 H        -0.560185        -0.897660        -0.691474
 H         1.989241         2.090024         0.758074
 H         1.762044         0.965319         2.224413
 H         4.292523         0.805318         0.375051
 H         3.805161        -2.033483         0.813812
 H         4.217118        -0.928117        -1.650498
 H         2.654871        -1.824351        -1.801391
 H         2.152944         0.866697        -2.646430
