19
Iteration:  3182
 C        -0.230989         0.077237        -0.150668
 C         1.250710        -0.010111         0.216652
 C         2.054814         0.886056         1.180960
 C         3.272160         0.461732         0.466977
 C         3.102900        -1.197343         0.414258
 C         3.177061        -1.085438        -1.131969
 C         2.574200         0.284685        -1.000165
 O         2.487915         1.265965        -1.975544
 O         1.728119        -1.280713         0.777903
 H        -0.849422         0.106439         0.873592
 H        -0.531883         1.107160        -0.549554
 H        -0.546382        -0.687527        -0.714350
 H         1.651957         1.946832         1.161803
 H         2.145956         0.395449         2.276399
 H         4.306202         0.771490         0.606825
 H         3.865347        -1.838721         0.954736
 H         4.156326        -0.978974        -1.654300
 H         2.746298        -1.834867        -1.791688
 H         1.722218         1.779956        -1.766200
