19
Iteration:  4441
 C        -0.096634         0.070730        -0.299040
 C         1.359390        -0.042366         0.164817
 C         1.995527         0.986805         1.090360
 C         3.377092         0.402703         0.462541
 C         3.212580        -1.147226         0.398661
 C         3.156971        -1.137713        -1.075665
 C         2.514781         0.287754        -0.914835
 O         2.270520         1.323568        -1.745794
 O         1.723754        -1.312648         0.796197
 H        -0.847112        -0.287046         0.440610
 H        -0.265752         1.107030        -0.720037
 H        -0.149576        -0.483096        -1.211744
 H         1.833906         1.979223         0.752467
 H         1.728134         0.875014         2.145269
 H         4.340788         0.872981         0.319109
 H         3.750112        -1.833304         1.000984
 H         4.078127        -1.156589        -1.676118
 H         2.524921        -1.955200        -1.429079
 H         1.393666         1.194673        -2.145215
