19
Iteration:  2089charge 0 multiplicity 1
 C        -0.167043        -0.067461        -0.139453
 C         1.262307        -0.003670         0.170958
 C         1.892756         0.864145         1.197226
 C         3.248725         0.480472         0.460367
 C         3.127018        -1.088776         0.476135
 C         3.167495        -1.020842        -1.099289
 C         2.517187         0.290374        -0.912326
 O         2.583422         1.295070        -1.899215
 O         1.680169        -1.307397         0.644105
 H        -0.772149        -0.231420         0.673945
 H        -0.549460         1.013229        -0.402525
 H        -0.514390        -0.707102        -1.051474
 H         1.676190         1.925800         1.215490
 H         1.769934         0.540213         2.215532
 H         4.256783         0.851199         0.681707
 H         3.889315        -1.606054         1.072676
 H         4.145311        -0.739738        -1.605221
 H         2.616125        -1.753420        -1.740470
 H         3.210192         0.990145        -2.627814
