19
Iteration:  3973charge 0 multiplicity 1
 C        -0.078835         0.123374        -0.303112
 C         1.340296         0.004524         0.174520
 C         2.080963         1.037511         1.156738
 C         3.306832         0.402021         0.472491
 C         3.136123        -1.173571         0.382333
 C         3.186273        -1.110682        -1.160270
 C         2.563099         0.251552        -0.834433
 O         2.070344         1.164542        -1.774865
 O         1.770108        -1.269806         0.754006
 H        -0.748381        -0.181891         0.505352
 H        -0.233908         1.162434        -0.747408
 H         0.033012        -0.680924        -1.147676
 H         1.990875         2.090285         0.779621
 H         1.679299         0.800293         2.126664
 H         4.386916         0.669392         0.575579
 H         3.767886        -1.871429         0.924951
 H         4.250874        -0.870936        -1.307389
 H         2.649613        -1.869137        -1.652738
 H         2.873425         1.550890        -2.181506
