19
Iteration:  2986
 C        -0.003218         0.085473        -0.363312
 C         1.398910        -0.100582         0.187417
 C         2.003205         0.932966         1.186626
 C         3.329393         0.484256         0.474995
 C         3.068442        -1.141201         0.455172
 C         3.145874        -1.127094        -1.190060
 C         2.549888         0.266153        -0.886185
 O         2.263105         1.307958        -1.850274
 O         1.732496        -1.329850         0.783204
 H        -0.897758        -0.234843         0.405652
 H        -0.103434         1.158294        -0.764881
 H        -0.207580        -0.690786        -1.022541
 H         1.792445         1.975742         0.889124
 H         1.849569         0.880220         2.289570
 H         4.300631         0.879173         0.713190
 H         3.716504        -1.863521         0.979795
 H         4.230723        -1.067537        -1.546260
 H         2.414831        -1.841901        -1.595162
 H         1.594496         1.886521        -1.458142
