19
Iteration:  2836charge 0 multiplicity 1
 C        -0.040988         0.056566        -0.320289
 C         1.312736         0.049470         0.173547
 C         1.999389         0.891909         1.228262
 C         3.307491         0.457282         0.524129
 C         3.194629        -1.194263         0.380084
 C         3.081939        -1.074979        -1.155966
 C         2.488475         0.330045        -0.807788
 O         2.338224         1.177130        -1.884666
 O         1.747067        -1.267096         0.720711
 H        -0.639918        -0.146292         0.445145
 H        -0.409668         0.846389        -1.002015
 H        -0.105000        -0.831937        -1.012530
 H         1.945516         2.035461         1.280023
 H         1.729302         0.553631         2.220685
 H         4.292632         0.973002         0.818127
 H         3.843112        -1.938733         0.949998
 H         4.042065        -0.755459        -1.610763
 H         2.664259        -1.822425        -1.807748
 H         1.677830         1.865339        -1.727410
