19
Iteration:   178charge 0 multiplicity 1
 C        -0.074065         0.132104        -0.218588
 C         1.319661         0.128423         0.070367
 C         2.055636         1.014103         1.134607
 C         3.257255         0.300210         0.547838
 C         3.069319        -1.213871         0.444719
 C         3.256017        -1.153781        -1.153740
 C         2.555181         0.202291        -0.847194
 O         2.290734         1.204963        -1.782979
 O         1.640181        -1.220054         0.646638
 H        -0.644520        -0.081247         0.747645
 H        -0.230966         1.122046        -0.666999
 H        -0.263285        -0.663973        -0.944719
 H         2.119767         2.011593         0.756011
 H         1.586778         0.936346         2.127518
 H         4.223849         0.759080         0.645517
 H         3.622577        -1.823036         1.245365
 H         4.211260        -1.128555        -1.500343
 H         2.644281        -1.866329        -1.593499
 H         3.084843         1.594180        -2.177333
