19
Iteration:  2394charge 0 multiplicity 1
 C        -0.282936        -0.124339        -0.037077
 C         1.249087         0.015686         0.078577
 C         1.955236         0.911752         1.109898
 C         3.265100         0.437610         0.471687
 C         3.080001        -1.173782         0.487453
 C         3.321644        -1.016385        -1.099181
 C         2.637380         0.287753        -0.828546
 O         2.546568         1.367711        -1.871567
 O         1.665966        -1.248215         0.545502
 H        -0.678422        -0.289616         0.817577
 H        -0.759433         0.732256        -0.537546
 H        -0.392178        -1.009936        -0.735890
 H         1.786697         2.036569         0.935450
 H         1.626965         0.668082         2.138995
 H         4.233504         0.991855         0.638004
 H         3.410736        -1.765664         1.314180
 H         4.333822        -0.885859        -1.239398
 H         2.904693        -1.806417        -1.660733
 H         1.961972         0.900754        -2.460381
