19
Iteration:  4967
 C        -0.095934         0.071319        -0.232973
 C         1.369018        -0.017568         0.205702
 C         2.080637         1.001533         1.063765
 C         3.393859         0.481182         0.593620
 C         3.121165        -1.161528         0.434365
 C         3.194669        -1.081752        -1.136614
 C         2.562378         0.265158        -0.862674
 O         2.189246         1.108602        -1.867249
 O         1.712778        -1.275088         0.672896
 H        -0.897095        -0.068608         0.495372
 H        -0.236215         1.049927        -0.689036
 H        -0.200651        -0.795716        -1.007873
 H         1.778586         2.020302         0.675495
 H         2.067502         1.030758         2.173342
 H         4.233022         1.124852         0.751576
 H         3.628768        -1.899261         1.040322
 H         4.155807        -0.810668        -1.498571
 H         2.603194        -1.884996        -1.727434
 H         1.454486         1.722810        -1.692063
