19
Iteration:  4415charge 0 multiplicity 1
 C        -0.176342         0.040128        -0.090316
 C         1.354210        -0.034654         0.132436
 C         2.037069         1.077010         1.129943
 C         3.234733         0.458935         0.500684
 C         3.145023        -1.185727         0.395205
 C         3.257669        -1.087442        -1.135001
 C         2.501222         0.265113        -0.907353
 O         2.394039         1.215450        -1.774786
 O         1.700903        -1.324861         0.647820
 H        -0.677725        -0.299140         0.792029
 H        -0.437935         0.947416        -0.516723
 H        -0.308537        -0.647235        -0.892864
 H         1.942104         2.027704         0.537183
 H         1.836968         1.306327         2.162402
 H         4.264798         0.898052         0.494300
 H         3.665450        -1.788423         1.175062
 H         4.211919        -1.051062        -1.674322
 H         2.674151        -1.739374        -1.849270
 H         1.597624         1.226824        -2.304523
