19
Iteration:   554charge 0 multiplicity 1
 C        -0.140311         0.149584        -0.221297
 C         1.356517         0.049493         0.131401
 C         2.060284         0.980477         1.220251
 C         3.404592         0.345451         0.577856
 C         3.083377        -1.269691         0.436383
 C         3.122407        -1.042828        -1.139296
 C         2.574370         0.284317        -0.834635
 O         2.405778         1.212140        -1.918489
 O         1.622671        -1.245478         0.657130
 H        -0.682711        -0.030426         0.740024
 H        -0.345853         1.188410        -0.763058
 H        -0.475649        -0.730772        -0.910006
 H         1.995610         2.001846         0.898644
 H         1.737058         0.797348         2.263468
 H         4.505476         0.730327         0.640665
 H         3.655786        -2.113763         0.917005
 H         4.096036        -1.061462        -1.474541
 H         2.567174        -1.749910        -1.721314
 H         1.488575         1.077614        -2.262956
