19
Iteration:  1030charge 0 multiplicity 1
 C        -0.147358         0.069304        -0.410321
 C         1.274238         0.062921         0.190924
 C         1.967660         0.915598         1.219109
 C         3.251979         0.423834         0.652587
 C         3.149510        -1.187753         0.390386
 C         3.274182        -1.052043        -1.127852
 C         2.542762         0.299789        -0.758531
 O         2.381393         1.181011        -1.929390
 O         1.724199        -1.322643         0.670362
 H        -0.862256        -0.099454         0.421153
 H        -0.570769         0.973355        -0.868776
 H        -0.251809        -0.662497        -1.235858
 H         2.022187         2.006376         0.974340
 H         1.639514         0.921451         2.207369
 H         4.352949         0.905143         0.811930
 H         3.725231        -1.849542         0.993824
 H         4.383488        -0.954829        -1.482332
 H         2.640457        -1.885594        -1.675689
 H         2.004682         2.058551        -1.683929
