19
Iteration:  3114
 C        -0.032388         0.090510        -0.270477
 C         1.359363        -0.015515         0.158725
 C         2.075144         0.937559         1.139199
 C         3.292453         0.413041         0.360344
 C         3.091818        -1.174056         0.456337
 C         3.194697        -1.108885        -1.111167
 C         2.532655         0.242118        -0.910118
 O         2.201725         1.295636        -1.840566
 O         1.674181        -1.299752         0.801387
 H        -0.711213        -0.249866         0.507353
 H        -0.279350         1.100553        -0.492598
 H        -0.118898        -0.461023        -1.220552
 H         1.700327         1.960773         0.892850
 H         2.086239         0.631673         2.214923
 H         4.292552         0.692613         0.517003
 H         3.676998        -1.872800         1.119521
 H         4.250436        -1.066483        -1.342808
 H         2.871742        -1.904387        -1.731540
 H         2.568341         2.149267        -1.518318
