19
Iteration:   639
 C        -0.116670         0.093893        -0.160683
 C         1.344466         0.058452         0.155600
 C         2.082537         1.031329         1.085607
 C         3.316890         0.376097         0.508711
 C         2.993919        -1.280647         0.463224
 C         3.193474        -1.162197        -1.092334
 C         2.565766         0.267731        -0.842411
 O         2.356470         1.368910        -1.817594
 O         1.656152        -1.327132         0.607882
 H        -0.710887        -0.119634         0.678109
 H        -0.555627         1.033072        -0.373939
 H        -0.296078        -0.613435        -0.993511
 H         2.066171         1.974363         0.460519
 H         1.890515         1.123977         2.174162
 H         4.352010         0.756126         0.880558
 H         3.524729        -1.939254         1.169681
 H         4.301462        -1.010596        -1.458121
 H         2.606084        -2.044840        -1.667763
 H         2.577808         1.093394        -2.730639
