19
Iteration:  1686
 C        -0.138012         0.084358        -0.479373
 C         1.302164        -0.016122         0.160731
 C         1.958452         0.996272         1.120588
 C         3.255060         0.398179         0.586146
 C         3.168182        -1.158927         0.464819
 C         3.238321        -1.118445        -1.062358
 C         2.522708         0.236492        -0.837260
 O         2.252456         1.288344        -1.750843
 O         1.790001        -1.333363         0.676072
 H        -0.764944        -0.369217         0.415997
 H        -0.338050         1.221913        -0.590399
 H        -0.200930        -0.506095        -1.333578
 H         1.754604         1.999453         0.839507
 H         1.496078         0.826348         2.109080
 H         4.171377         0.893633         0.729736
 H         3.787208        -1.902351         0.998867
 H         4.248591        -0.746111        -1.426193
 H         2.903057        -1.906257        -1.734487
 H         3.101507         1.676970        -2.052180
