19
Iteration:  1138
 C        -0.168911         0.058242        -0.314307
 C         1.277149        -0.050050         0.057354
 C         1.940368         0.854273         1.218550
 C         3.181272         0.432664         0.505380
 C         3.127702        -1.123357         0.471922
 C         3.291166        -1.099110        -1.040491
 C         2.592763         0.305141        -0.879952
 O         2.372097         1.332316        -1.878954
 O         1.701300        -1.282491         0.690115
 H        -0.826594        -0.236430         0.564985
 H        -0.286389         1.035662        -0.525806
 H        -0.506936        -0.582522        -1.134805
 H         1.759395         1.968886         0.956297
 H         1.910202         0.501377         2.268207
 H         4.230311         0.856761         0.788767
 H         3.705893        -1.636384         1.211067
 H         4.388966        -1.079624        -1.306739
 H         2.820744        -2.057813        -1.484877
 H         3.250716         1.437223        -2.346591
