19
Iteration:  1265
 C        -0.255294         0.010218        -0.235669
 C         1.269870        -0.016374         0.039166
 C         1.923756         1.001447         1.085547
 C         3.246173         0.400969         0.613442
 C         3.131224        -1.170931         0.432760
 C         3.401211        -1.099402        -1.106499
 C         2.555909         0.232686        -0.852996
 O         2.371501         1.341581        -1.798258
 O         1.686270        -1.313749         0.689929
 H        -0.683099         0.142001         0.732402
 H        -0.397104         0.880709        -0.967003
 H        -0.537092        -0.930787        -0.783638
 H         1.834979         2.034830         0.878351
 H         1.565694         0.774114         2.092954
 H         4.212390         0.792189         0.725236
 H         3.672466        -1.852326         1.082932
 H         4.464812        -0.803072        -1.402124
 H         3.025442        -1.799938        -1.859097
 H         3.162399         1.547203        -2.278591
