19
Iteration:  4411
 C        -0.192773         0.023926        -0.062537
 C         1.332248        -0.009671         0.135610
 C         2.021248         1.061372         1.133571
 C         3.267239         0.421120         0.488408
 C         3.153627        -1.166830         0.365507
 C         3.288950        -1.054262        -1.122247
 C         2.513227         0.236554        -0.908375
 O         2.418802         1.233327        -1.805747
 O         1.674502        -1.309131         0.655906
 H        -0.784428        -0.241311         0.835464
 H        -0.558538         1.048178        -0.436483
 H        -0.357497        -0.832500        -0.907769
 H         1.899268         2.062109         0.626760
 H         1.808778         1.223631         2.261755
 H         4.240201         0.908379         0.392840
 H         3.622960        -1.838174         1.159567
 H         4.244282        -1.058420        -1.648153
 H         2.741580        -1.826123        -1.719319
 H         1.578547         1.153928        -2.329990
