19
Iteration:  3963charge 0 multiplicity 1
 C        -0.045850         0.083755        -0.337684
 C         1.378263         0.027144         0.244183
 C         2.071942         1.062561         1.154276
 C         3.401514         0.406787         0.520207
 C         3.161626        -1.176067         0.391249
 C         3.239043        -1.111511        -1.110392
 C         2.524792         0.251274        -0.836915
 O         2.041049         1.138298        -1.782239
 O         1.689706        -1.286105         0.675802
 H        -0.786411        -0.090455         0.455312
 H        -0.291343         1.169978        -0.677598
 H        -0.518721        -0.567369        -1.245640
 H         1.845378         2.093633         0.842567
 H         1.951718         1.120189         2.246178
 H         4.473032         0.718763         0.670988
 H         3.766723        -1.904908         0.911705
 H         4.120220        -1.035683        -1.733355
 H         2.777534        -1.875760        -1.665911
 H         2.710293         1.736092        -2.198789
