19
Iteration:  3134
 C        -0.139200         0.112391        -0.397590
 C         1.316399         0.026559         0.172870
 C         2.131399         1.012430         1.202654
 C         3.400941         0.418478         0.571698
 C         3.159617        -1.192546         0.391997
 C         3.174768        -1.136244        -1.147157
 C         2.519296         0.241714        -0.846283
 O         2.121968         1.175009        -1.812960
 O         1.743485        -1.257942         0.708561
 H        -0.875846        -0.136555         0.302541
 H        -0.354914         1.107446        -0.704013
 H        -0.221065        -0.688640        -1.283395
 H         2.327477         2.018242         1.043571
 H         1.903427         0.805762         2.161237
 H         4.441085         0.774763         0.635773
 H         3.637970        -1.928490         1.040220
 H         4.163292        -1.074283        -1.578149
 H         2.623475        -1.889835        -1.718983
 H         2.268628         2.075092        -1.411334
