19
Iteration:  3537charge 0 multiplicity 1
 C        -0.185219         0.045966         0.002364
 C         1.292687        -0.073613         0.209229
 C         1.930067         1.005393         1.052201
 C         3.247172         0.545909         0.495443
 C         3.117037        -1.126494         0.441916
 C         3.166721        -1.076718        -1.261870
 C         2.548448         0.254054        -0.876001
 O         2.549283         1.264240        -1.819468
 O         1.745654        -1.381565         0.659091
 H        -0.766116        -0.094690         0.940694
 H        -0.524339         1.031876        -0.401338
 H        -0.652741        -0.945247        -0.629371
 H         1.494086         2.031104         0.667871
 H         1.771651         1.092629         2.179846
 H         4.167951         1.065495         0.532322
 H         3.823161        -1.811916         0.925113
 H         4.180663        -0.835312        -1.724404
 H         2.621048        -1.842901        -1.832990
 H         2.299039         0.825520        -2.653217
