19
Iteration:  3891charge 0 multiplicity 1
 C        -0.196569        -0.005180        -0.023953
 C         1.238183        -0.013784         0.158449
 C         2.014745         1.000674         1.137735
 C         3.296264         0.448947         0.461281
 C         3.184488        -1.125549         0.402791
 C         3.114360        -1.059848        -1.128404
 C         2.493475         0.309154        -0.885928
 O         2.468282         1.288533        -1.904330
 O         1.711579        -1.342661         0.664676
 H        -0.749700        -0.208097         0.944171
 H        -0.528383         0.896151        -0.527801
 H        -0.409753        -0.859276        -0.579720
 H         1.742069         2.014875         0.734414
 H         1.851167         1.204353         2.316557
 H         4.272481         0.948109         0.482768
 H         3.799306        -1.851114         0.973070
 H         4.047243        -1.204826        -1.734985
 H         2.753479        -2.114976        -1.493775
 H         3.129074         0.927526        -2.551086
