19
Iteration:  1292charge 0 multiplicity 1
 C        -0.132815        -0.010082        -0.256281
 C         1.314144        -0.008141         0.083009
 C         1.992329         0.897842         1.149351
 C         3.257057         0.472268         0.564573
 C         3.115288        -1.079890         0.474943
 C         3.325968        -1.113277        -0.985410
 C         2.584083         0.274028        -0.827564
 O         2.315950         1.270215        -1.806991
 O         1.602799        -1.272446         0.491877
 H        -0.689743         0.025417         0.805284
 H        -0.326848         0.826762        -0.887694
 H        -0.243947        -0.959536        -0.788637
 H         1.802753         2.009697         0.994722
 H         1.726159         0.610634         2.185008
 H         4.250059         1.028422         0.446115
 H         3.595735        -1.830578         1.137685
 H         4.335186        -0.978980        -1.184718
 H         2.846040        -1.901568        -1.571071
 H         3.049127         1.548457        -2.336340
