19
Iteration:  4943
 C        -0.095616         0.006977        -0.281639
 C         1.364644         0.044972         0.133134
 C         2.077116         1.125777         1.163933
 C         3.328812         0.357715         0.472172
 C         3.188827        -1.146818         0.418723
 C         3.223364        -1.160933        -1.089139
 C         2.515663         0.261325        -0.863136
 O         2.184737         1.171827        -1.841541
 O         1.691537        -1.285290         0.722846
 H        -0.792016        -0.198072         0.576121
 H        -0.363660         1.002732        -0.678180
 H        -0.221988        -0.835904        -0.983234
 H         1.884307         2.229895         0.921610
 H         1.848528         0.917576         2.296651
 H         4.311542         0.734665         0.363826
 H         3.881346        -1.764156         1.035684
 H         4.213633        -0.844446        -1.395723
 H         2.684477        -1.842587        -1.808228
 H         1.823848         2.074160        -1.683962
