19
Iteration:  3583
 C        -0.150185        -0.057046        -0.044682
 C         1.320281         0.000982         0.131610
 C         2.008519         0.965762         1.130272
 C         3.326876         0.463200         0.399911
 C         3.069419        -1.149835         0.415129
 C         3.248274        -1.122989        -1.100399
 C         2.581966         0.254520        -0.993379
 O         2.417696         1.393446        -1.886756
 O         1.638707        -1.298494         0.749767
 H        -0.628374        -0.366942         0.870589
 H        -0.613459         0.952574        -0.397170
 H        -0.329326        -0.961754        -0.811862
 H         1.864718         2.078014         1.010340
 H         1.847293         0.729477         2.239160
 H         4.305360         0.843028         0.684054
 H         3.625953        -1.734300         1.163209
 H         4.309773        -1.144348        -1.348216
 H         2.639530        -1.818329        -1.695380
 H         1.744606         1.189960        -2.594044
