19
Iteration:  1683
 C        -0.142369         0.084800        -0.471395
 C         1.321500         0.009956         0.178379
 C         1.953043         0.982872         1.141382
 C         3.252494         0.418392         0.584955
 C         3.162267        -1.176048         0.481016
 C         3.261258        -1.103814        -1.086847
 C         2.533209         0.214280        -0.834590
 O         2.248352         1.278364        -1.760676
 O         1.769904        -1.308154         0.659919
 H        -0.768400        -0.381978         0.346324
 H        -0.277381         1.093085        -0.610861
 H        -0.107878        -0.647506        -1.402018
 H         1.712666         2.004567         0.897189
 H         1.577691         0.742349         2.189960
 H         4.236339         0.909403         0.728647
 H         3.726133        -1.920256         1.034411
 H         4.155609        -0.840917        -1.470312
 H         2.821055        -1.860867        -1.696587
 H         3.055393         1.745816        -2.119877
