19
Iteration:  3433
 C        -0.141468         0.086643        -0.240907
 C         1.312201        -0.030168         0.143886
 C         1.996085         0.965670         1.167144
 C         3.278520         0.534297         0.442484
 C         3.197969        -1.119007         0.416147
 C         3.205939        -1.183167        -1.156057
 C         2.457196         0.235091        -0.849443
 O         2.436248         1.243340        -1.782119
 O         1.721789        -1.291153         0.678806
 H        -0.629740        -0.377154         0.683861
 H        -0.607162         1.104223        -0.313865
 H        -0.400141        -0.537123        -0.995576
 H         1.823282         1.964891         0.987670
 H         1.816263         0.682864         2.177954
 H         4.298567         1.020506         0.401656
 H         3.642547        -1.835498         1.127601
 H         4.158644        -0.891696        -1.580858
 H         2.752522        -2.036649        -1.682342
 H         1.474237         1.333305        -2.038742
