19
Iteration:  2313
 C         0.017736        -0.009723        -0.420837
 C         1.309258         0.039346         0.214176
 C         1.976910         0.984404         1.347443
 C         3.351876         0.446336         0.497107
 C         3.112011        -1.207343         0.432991
 C         3.270055        -1.070269        -1.088745
 C         2.527519         0.254448        -0.852275
 O         2.276569         1.331268        -1.851212
 O         1.639576        -1.267454         0.633215
 H        -0.902226        -0.500596         0.263844
 H        -0.251784         0.841108        -0.943591
 H         0.068580        -0.870939        -1.032115
 H         1.813050         2.007815         1.112590
 H         1.943386         0.626934         2.399662
 H         4.358077         0.778792         0.610388
 H         3.534518        -1.923308         1.210493
 H         4.396048        -0.932027        -1.389636
 H         2.635617        -1.757161        -1.784374
 H         1.488038         1.006697        -2.321413
