19
Iteration:   667charge 0 multiplicity 1
 C        -0.142339         0.105916        -0.275340
 C         1.304718         0.007758         0.175442
 C         2.023304         0.931513         1.233453
 C         3.323073         0.408234         0.428204
 C         3.109672        -1.184753         0.379884
 C         3.181966        -1.144203        -1.176903
 C         2.485916         0.228128        -0.835945
 O         2.526032         1.234979        -1.799298
 O         1.653687        -1.207556         0.716570
 H        -0.903481         0.191515         0.618878
 H        -0.375310         1.127636        -0.741549
 H        -0.543065        -0.652430        -0.955158
 H         1.936814         2.029958         1.004714
 H         1.828509         0.657811         2.268969
 H         4.280157         0.864228         0.509336
 H         3.600013        -1.805046         1.122451
 H         4.111361        -0.915610        -1.653714
 H         2.706445        -1.917654        -1.667006
 H         1.583313         1.282726        -2.132359
