19
Iteration:  3404charge 0 multiplicity 1
 C        -0.251629        -0.033455        -0.050049
 C         1.248722        -0.046183         0.249214
 C         2.074422         0.976694         1.175591
 C         3.281214         0.465627         0.474213
 C         3.087121        -1.145971         0.439843
 C         3.241578        -1.084055        -1.101019
 C         2.502796         0.341812        -0.919746
 O         2.523320         1.343336        -1.941367
 O         1.677927        -1.303902         0.594720
 H        -0.712205        -0.469338         0.933117
 H        -0.722426         0.818827        -0.482336
 H        -0.474132        -0.900145        -0.832615
 H         2.032224         2.083396         0.900633
 H         1.850700         0.854963         2.269533
 H         4.321535         0.767634         0.461255
 H         3.495235        -1.919102         1.043694
 H         4.301498        -0.949041        -1.345533
 H         2.817723        -1.923572        -1.715929
 H         2.189349         0.856599        -2.710533
