19
Iteration:  2003
 C        -0.076854         0.029740        -0.415717
 C         1.289131        -0.011332         0.180037
 C         1.996539         0.909487         1.177109
 C         3.281352         0.452932         0.559506
 C         3.150430        -1.129869         0.467071
 C         3.256058        -1.023129        -1.118869
 C         2.516143         0.279016        -0.844767
 O         2.287922         1.238564        -1.852479
 O         1.681416        -1.367282         0.722870
 H        -0.823347        -0.082063         0.440644
 H        -0.131146         1.041955        -0.974851
 H        -0.173501        -0.730377        -1.094769
 H         1.850019         1.990625         0.800627
 H         1.775805         0.758833         2.245446
 H         4.297987         0.878795         0.601300
 H         3.794223        -1.772983         1.116199
 H         4.312570        -0.960615        -1.592900
 H         2.609541        -1.778710        -1.671145
 H         2.544803         2.158084        -1.652383
