19
Iteration:  1284
 C        -0.130824        -0.002788        -0.228107
 C         1.313955         0.068555         0.103609
 C         1.915452         0.947006         1.175082
 C         3.232996         0.448386         0.477542
 C         3.069184        -1.117328         0.510150
 C         3.347612        -1.117415        -1.041600
 C         2.635563         0.249992        -0.899613
 O         2.318281         1.263691        -1.739278
 O         1.650292        -1.260823         0.496507
 H        -0.628327        -0.013601         0.676952
 H        -0.583927         0.711504        -0.974217
 H        -0.351108        -0.906422        -0.680098
 H         1.710302         1.999176         1.028894
 H         1.720388         0.574642         2.215794
 H         4.242398         0.859229         0.655077
 H         3.650155        -1.818556         1.150299
 H         4.537613        -1.061188        -1.213794
 H         3.089239        -2.042380        -1.611124
 H         3.026253         1.475117        -2.337871
