19
Iteration:  2179charge 0 multiplicity 1
 C        -0.123254         0.079675        -0.426532
 C         1.290327         0.003208         0.165685
 C         1.995385         0.850834         1.265698
 C         3.250109         0.448133         0.533111
 C         3.183384        -1.084269         0.438213
 C         3.175424        -1.095072        -1.067444
 C         2.522623         0.252027        -0.913453
 O         2.305036         1.275146        -1.777415
 O         1.767467        -1.313844         0.673685
 H        -0.933498         0.137552         0.434967
 H        -0.089476         1.083332        -1.049090
 H        -0.346276        -0.784276        -1.009968
 H         1.674237         1.903410         1.061038
 H         1.852472         0.741352         2.329385
 H         4.201463         1.004689         0.791118
 H         3.731232        -1.792193         0.978963
 H         4.206461        -0.943535        -1.594536
 H         2.517461        -1.899775        -1.549095
 H         3.020949         1.247396        -2.477059
