19
Iteration:   666
 C        -0.149811         0.101206        -0.274376
 C         1.299097         0.008157         0.169206
 C         2.027021         0.940593         1.225939
 C         3.332798         0.403788         0.435227
 C         3.114310        -1.181748         0.379974
 C         3.185835        -1.139829        -1.174518
 C         2.489617         0.224819        -0.828430
 O         2.517895         1.236960        -1.795434
 O         1.646754        -1.209450         0.712625
 H        -0.885649         0.194521         0.615439
 H        -0.403438         1.150110        -0.717804
 H        -0.534921        -0.659541        -0.954676
 H         1.984474         1.992436         1.005290
 H         1.814859         0.658261         2.243294
 H         4.297035         0.821481         0.481441
 H         3.631326        -1.808170         1.107726
 H         4.089336        -0.932287        -1.616834
 H         2.709420        -1.882441        -1.645552
 H         1.611881         1.275038        -2.192840
