19
Iteration:  3941charge 0 multiplicity 1
 C        -0.071099         0.160448        -0.208050
 C         1.367811        -0.023414         0.172954
 C         2.138434         0.994026         1.163706
 C         3.312777         0.416552         0.484285
 C         3.137332        -1.112951         0.487268
 C         3.185995        -1.113224        -1.055827
 C         2.523240         0.257875        -0.853556
 O         2.069742         1.179737        -1.855724
 O         1.742669        -1.321837         0.595503
 H        -0.744300        -0.197051         0.584783
 H        -0.341052         1.121663        -0.780399
 H        -0.257489        -0.649918        -1.130132
 H         2.000128         2.045571         0.987185
 H         1.737355         0.882111         2.144267
 H         4.364983         0.775984         0.601833
 H         3.776474        -1.784130         1.036736
 H         4.178728        -1.000632        -1.504732
 H         2.796155        -1.895003        -1.640283
 H         2.871877         1.553846        -2.229132
