19
Iteration:   985
 C        -0.262786         0.083906        -0.331607
 C         1.242099         0.009966         0.112892
 C         1.978695         0.947457         1.294984
 C         3.260446         0.405060         0.542286
 C         3.146877        -1.108569         0.461825
 C         3.279493        -1.118454        -1.022546
 C         2.589231         0.280264        -0.901356
 O         2.468991         1.228718        -1.893092
 O         1.729965        -1.326275         0.594195
 H        -0.953978        -0.453993         0.369564
 H        -0.635724         1.048884        -0.344848
 H        -0.371357        -0.264333        -1.381647
 H         1.835164         2.048750         1.218454
 H         1.798197         0.759361         2.336444
 H         4.335081         0.943378         0.536519
 H         3.701279        -1.817883         1.078985
 H         4.387340        -0.949228        -1.285541
 H         2.770599        -1.987556        -1.636810
 H         1.675479         1.767525        -1.798305
