19
Iteration:   844charge 0 multiplicity 1
 C        -0.068701         0.113862        -0.300437
 C         1.327563         0.014414         0.123222
 C         1.952592         0.938924         1.094286
 C         3.278053         0.375744         0.559094
 C         3.153703        -1.157066         0.444866
 C         3.239536        -1.098089        -1.065879
 C         2.485768         0.267589        -0.892502
 O         2.347532         1.258175        -1.718166
 O         1.674151        -1.276778         0.633647
 H        -0.642512        -0.086558         0.706301
 H        -0.550152         1.014844        -0.714573
 H        -0.288059        -0.754255        -1.033310
 H         1.653503         1.970687         0.762320
 H         1.625854         0.816420         2.109805
 H         4.370461         0.840247         0.575823
 H         3.676719        -1.819164         1.150623
 H         4.253497        -0.888986        -1.355576
 H         2.864926        -1.823209        -1.651503
 H         2.789530         1.098915        -2.550311
