19
Iteration:   976charge 0 multiplicity 1
 C        -0.339106         0.089706        -0.325179
 C         1.278166        -0.027911         0.194827
 C         1.941426         0.993039         1.222260
 C         3.208048         0.450540         0.505418
 C         3.211569        -1.133600         0.491098
 C         3.340601        -1.130398        -1.102130
 C         2.502629         0.196954        -0.891311
 O         2.531018         1.255299        -1.846022
 O         1.731202        -1.278559         0.600917
 H        -1.033486        -0.519603         0.292122
 H        -0.465274         1.204839        -0.325127
 H        -0.583350        -0.263754        -1.371554
 H         1.847991         2.080768         1.141466
 H         1.858387         0.658989         2.178634
 H         4.349523         0.641481         0.785669
 H         3.688347        -1.905267         1.050034
 H         4.386469        -0.991566        -1.477091
 H         2.876669        -1.940664        -1.658025
 H         1.693634         1.680779        -1.644410
