19
Iteration:  4190
 C        -0.186897         0.001450         0.002978
 C         1.281329        -0.092291         0.142581
 C         1.907526         0.940770         1.121927
 C         3.228585         0.433992         0.415714
 C         3.163328        -1.102212         0.374920
 C         3.202350        -1.043168        -1.138809
 C         2.576271         0.308916        -0.932597
 O         2.416646         1.270614        -1.936001
 O         1.726591        -1.348875         0.767156
 H        -0.720061         0.076634         0.961016
 H        -0.165502         1.064635        -0.470126
 H        -0.571657        -0.762706        -0.578364
 H         1.691796         1.932879         0.608522
 H         1.802242         0.815040         2.244240
 H         4.228345         0.911404         0.645115
 H         3.751836        -1.801308         0.901094
 H         4.309970        -0.839166        -1.378354
 H         2.644444        -1.819007        -1.664402
 H         3.188683         1.831905        -2.217367
