19
Iteration:  2370charge 0 multiplicity 1
 C        -0.180084         0.021756        -0.176381
 C         1.261392        -0.059857         0.111498
 C         1.924231         1.005902         1.082896
 C         3.210710         0.468784         0.488209
 C         3.102989        -1.116442         0.364283
 C         3.338750        -1.093318        -1.079382
 C         2.468367         0.210385        -0.878624
 O         2.501158         1.382736        -1.740042
 O         1.751001        -1.416236         0.670416
 H        -0.779958         0.020229         0.711990
 H        -0.339296         0.906092        -0.676178
 H        -0.439988        -0.798047        -0.922148
 H         1.830150         2.072009         0.746667
 H         1.647611         0.996310         2.147900
 H         4.136612         0.963625         0.772335
 H         3.648573        -1.747115         1.019457
 H         4.363436        -0.929608        -1.298668
 H         2.901646        -1.982308        -1.570061
 H         2.012124         1.320692        -2.570505
