19
Iteration:   416charge 0 multiplicity 1
 C        -0.186206         0.284560        -0.210053
 C         1.277351         0.009413         0.080607
 C         1.952798         0.946505         1.040550
 C         3.328369         0.359526         0.530677
 C         3.117047        -1.190589         0.426125
 C         3.179706        -1.168342        -1.166764
 C         2.492923         0.183304        -0.842824
 O         2.497130         1.262738        -1.732225
 O         1.764942        -1.300933         0.723430
 H        -0.781204        -0.075359         0.614965
 H        -0.332078         1.324576        -0.384552
 H        -0.602023        -0.244167        -0.999201
 H         1.763389         1.994855         0.783899
 H         1.676327         0.911055         2.123226
 H         4.242013         0.827247         0.440597
 H         3.775743        -1.833748         1.044003
 H         4.305176        -0.966358        -1.544793
 H         2.523987        -2.016895        -1.637942
 H         1.827630         1.128129        -2.399373
