19
Iteration:  4975
 C        -0.074837         0.068910        -0.210487
 C         1.335109        -0.003374         0.189325
 C         2.043975         0.966207         1.110369
 C         3.367863         0.442405         0.530500
 C         3.231375        -1.125919         0.431927
 C         3.163259        -1.106833        -1.069844
 C         2.502489         0.274520        -0.869543
 O         2.237756         1.159763        -1.927272
 O         1.701086        -1.277292         0.710791
 H        -0.898141        -0.010124         0.557890
 H        -0.139311         1.096937        -0.623625
 H        -0.265437        -0.653461        -0.992682
 H         1.740425         2.021032         0.761800
 H         1.661247         0.835156         2.232385
 H         4.361372         0.824369         0.635484
 H         3.868667        -1.865461         0.977774
 H         4.192394        -0.920407        -1.430329
 H         2.742706        -1.777393        -1.866111
 H         1.413030         1.667201        -1.940946
