19
Iteration:    11charge 0 multiplicity 1
 C        -0.052125         0.102906        -0.247088
 C         1.323953         0.059951         0.128932
 C         1.913178         0.984275         1.214184
 C         3.363255         0.447041         0.517162
 C         3.081499        -1.176514         0.483400
 C         3.156616        -1.168075        -1.107760
 C         2.499404         0.248293        -0.844590
 O         2.488199         1.216846        -1.954359
 O         1.636913        -1.332682         0.694585
 H        -0.674148         0.075229         0.672233
 H        -0.086163         1.208484        -0.579048
 H        -0.464257        -0.521678        -1.094416
 H         1.848673         2.094418         1.122052
 H         1.778591         0.599742         2.212777
 H         4.427444         0.647193         0.237729
 H         3.611955        -1.951760         0.984198
 H         3.994557        -0.949479        -1.665376
 H         2.569216        -1.879550        -1.596359
 H         2.091987         2.083318        -1.676170
