19
Iteration:  2708charge 0 multiplicity 1
 C        -0.266605         0.023385        -0.184887
 C         1.261196         0.013869         0.106438
 C         1.897732         0.950524         1.199760
 C         3.256887         0.448492         0.496662
 C         3.199133        -1.174471         0.335601
 C         3.224576        -1.108508        -1.110924
 C         2.574588         0.268842        -0.867013
 O         2.515421         1.300066        -1.818715
 O         1.807931        -1.293704         0.653500
 H        -0.818777        -0.038774         0.908781
 H        -0.595342         0.928033        -0.560454
 H        -0.775935        -0.877166        -0.674356
 H         1.581403         1.971203         0.898156
 H         1.687160         0.643775         2.200907
 H         4.227836         1.008373         0.638316
 H         3.758100        -1.895711         0.941366
 H         4.283072        -0.931454        -1.353117
 H         2.665882        -1.865390        -1.724431
 H         1.585408         1.425906        -2.149415
