19
Iteration:  3825
 C        -0.136189         0.155305        -0.204864
 C         1.386603        -0.031013         0.234127
 C         2.060384         1.010358         1.145646
 C         3.244452         0.432501         0.439323
 C         3.139252        -1.098909         0.413600
 C         3.172683        -1.100607        -1.118513
 C         2.491415         0.249622        -0.864429
 O         2.192711         1.166877        -1.844659
 O         1.787179        -1.355381         0.688022
 H        -0.872751        -0.037732         0.596261
 H        -0.143036         1.138989        -0.697478
 H        -0.209448        -0.506760        -1.034990
 H         1.860030         2.036700         0.819841
 H         1.868987         0.992182         2.319760
 H         4.324494         0.717266         0.349761
 H         3.745676        -1.832772         0.944369
 H         4.246113        -0.990604        -1.541451
 H         2.737621        -2.073112        -1.566292
 H         2.977616         1.692696        -2.025437
