19
Iteration:  3904charge 0 multiplicity 1
 C        -0.237301         0.031397        -0.101809
 C         1.288386        -0.009093         0.200393
 C         1.998012         0.961469         1.112997
 C         3.263920         0.436672         0.430264
 C         3.130727        -1.109394         0.405171
 C         3.150605        -1.073902        -1.145576
 C         2.488983         0.266992        -0.903285
 O         2.440564         1.250094        -1.890189
 O         1.804019        -1.324037         0.748230
 H        -0.867981         0.029558         0.896542
 H        -0.492535         1.024351        -0.434537
 H        -0.614669        -0.699282        -0.727673
 H         1.880818         2.040361         0.823710
 H         1.853726         0.626497         2.187432
 H         4.275701         0.802491         0.528635
 H         3.860802        -1.737262         0.975996
 H         4.141459        -0.780162        -1.444454
 H         2.477933        -1.720110        -1.750713
 H         3.098598         1.079845        -2.566658
