19
Iteration:  2864
 C        -0.183630        -0.071016        -0.105839
 C         1.266278        -0.052756         0.129515
 C         2.085869         0.996857         1.185059
 C         3.289342         0.427440         0.586262
 C         3.113197        -1.137597         0.400037
 C         3.242977        -1.024893        -1.099202
 C         2.566439         0.353701        -0.910209
 O         2.428888         1.243512        -1.960204
 O         1.636966        -1.314793         0.584369
 H        -0.757194        -0.181437         1.037110
 H        -0.475035         0.927133        -0.610003
 H        -0.543844        -0.895502        -0.722460
 H         2.104937         2.056844         1.133895
 H         1.752638         0.775021         2.234843
 H         4.260406         0.716600         0.819798
 H         3.686264        -1.820909         1.006737
 H         4.319848        -0.878008        -1.472543
 H         2.771147        -1.840314        -1.725056
 H         1.790976         1.912450        -1.735563
