19
Iteration:  2890
 C        -0.243614         0.066994         0.030142
 C         1.208989        -0.043197         0.163292
 C         1.935079         0.950391         1.106025
 C         3.195614         0.465693         0.448718
 C         3.148727        -1.159889         0.362557
 C         3.332887        -1.046262        -1.127258
 C         2.477560         0.234672        -0.926342
 O         2.566174         1.209393        -1.823009
 O         1.749746        -1.318148         0.575788
 H        -0.747432        -0.195656         0.952910
 H        -0.506752         1.174633        -0.316705
 H        -0.553756        -0.719775        -0.698303
 H         1.703568         2.021007         0.854825
 H         1.518974         0.841602         2.113861
 H         4.227734         0.962077         0.225302
 H         3.732808        -1.814963         1.075649
 H         4.387896        -0.710852        -1.525210
 H         2.946731        -1.880717        -1.741473
 H         2.106432         1.967393        -1.484535
