19
Iteration:  2664charge 0 multiplicity 1
 C        -0.054193         0.008561        -0.399842
 C         1.328350        -0.012465         0.157206
 C         2.029699         1.008166         1.186634
 C         3.335108         0.498863         0.502720
 C         3.080051        -1.275389         0.402387
 C         3.243343        -1.055446        -1.148046
 C         2.576528         0.279419        -0.783450
 O         2.188654         1.228361        -1.773829
 O         1.716691        -1.299807         0.718007
 H        -1.010965        -0.133503         0.302872
 H        -0.174118         0.891334        -0.888019
 H        -0.301772        -0.735922        -1.224786
 H         2.053524         2.091375         0.949290
 H         1.923978         0.835326         2.237478
 H         4.393815         0.882635         0.539913
 H         3.566251        -2.061424         0.964888
 H         4.294669        -0.811643        -1.427349
 H         2.841767        -1.874313        -1.851210
 H         1.983124         2.167604        -1.522299
