19
Iteration:  2877charge 0 multiplicity 1
 C        -0.239700         0.001881        -0.041475
 C         1.287966         0.019555         0.157979
 C         1.989498         0.975770         1.155799
 C         3.274088         0.436525         0.457954
 C         3.130907        -1.147384         0.435552
 C         3.278999        -1.021132        -1.112114
 C         2.497705         0.255177        -0.856851
 O         2.510039         1.232863        -1.898587
 O         1.679233        -1.364396         0.529584
 H        -0.715745        -0.161325         1.061348
 H        -0.802064         0.977801        -0.466242
 H        -0.514895        -0.804974        -0.667355
 H         1.734728         1.930631         0.746309
 H         2.020050         0.887582         2.251443
 H         4.241107         0.915629         0.523313
 H         3.660018        -1.864488         1.059479
 H         4.391781        -0.656691        -1.318710
 H         2.937756        -1.837540        -1.807917
 H         1.916939         2.000170        -1.657027
