19
Iteration:  4690
 C        -0.208733        -0.026978        -0.029825
 C         1.277288         0.022649         0.193730
 C         2.074626         0.949447         1.192117
 C         3.229657         0.425485         0.414295
 C         3.123065        -1.084110         0.389060
 C         3.239748        -1.077928        -1.027835
 C         2.485854         0.279368        -0.932277
 O         2.506042         1.229168        -1.920134
 O         1.691740        -1.230043         0.599746
 H        -0.859329        -0.167361         0.917229
 H        -0.584273         0.937844        -0.565596
 H        -0.325815        -0.976121        -0.532846
 H         1.594511         1.899706         1.007054
 H         1.895404         0.693536         2.277281
 H         4.298034         0.788709         0.480414
 H         3.720499        -1.842899         0.936919
 H         4.223227        -0.739128        -1.501108
 H         2.956298        -1.984354        -1.536563
 H         1.791690         1.089678        -2.558701
