19
Iteration:  3432
 C        -0.143290         0.077355        -0.231436
 C         1.312662        -0.022956         0.151838
 C         2.002954         0.964541         1.167453
 C         3.274204         0.535978         0.437271
 C         3.193114        -1.117414         0.420275
 C         3.207911        -1.187075        -1.153075
 C         2.450925         0.234421        -0.848148
 O         2.441962         1.242469        -1.782389
 O         1.715416        -1.292201         0.665777
 H        -0.596632        -0.369122         0.652639
 H        -0.607516         1.097479        -0.333564
 H        -0.413117        -0.528018        -0.999438
 H         1.812170         1.986488         0.996586
 H         1.841335         0.690910         2.197920
 H         4.289415         1.017243         0.406649
 H         3.692091        -1.816351         1.150487
 H         4.155811        -0.870558        -1.600498
 H         2.765341        -2.032099        -1.683367
 H         1.495460         1.335894        -2.058299
