19
Iteration:   813
 C        -0.227969         0.012691        -0.307543
 C         1.214518         0.004316         0.147493
 C         2.120954         0.966927         1.261966
 C         3.315494         0.451271         0.549014
 C         3.105590        -1.169116         0.446339
 C         3.242647        -1.066642        -1.065481
 C         2.584833         0.308131        -0.885525
 O         2.406525         1.237660        -1.959853
 O         1.605231        -1.296307         0.675460
 H        -0.679767        -0.583571         0.544743
 H        -0.794002         0.911632        -0.674091
 H        -0.423523        -0.799680        -1.108097
 H         1.733033         2.080820         1.080226
 H         2.021017         0.700181         2.395977
 H         4.406778         0.756453         0.705649
 H         3.598143        -1.840224         1.143786
 H         4.348177        -1.023055        -1.293705
 H         2.735530        -1.758024        -1.794355
 H         3.114266         1.938006        -2.015841
