19
Iteration:  4098
 C        -0.086760         0.169570        -0.257550
 C         1.348657        -0.010008         0.139546
 C         1.970001         0.940541         1.170311
 C         3.297079         0.478420         0.453634
 C         3.221115        -1.170006         0.460984
 C         3.161050        -1.141993        -1.142991
 C         2.485559         0.238719        -0.871437
 O         2.174604         1.178944        -1.840201
 O         1.807037        -1.288577         0.717840
 H        -0.802115        -0.242658         0.557206
 H        -0.293698         1.198777        -0.426581
 H        -0.206020        -0.625538        -1.063735
 H         1.759852         1.983195         0.964211
 H         1.965105         0.729463         2.214670
 H         4.201867         1.009794         0.660057
 H         3.864762        -1.705691         1.202936
 H         3.982451        -0.903107        -1.768656
 H         2.648309        -1.976332        -1.700217
 H         2.932985         1.751801        -1.918651
