19
Iteration:   456charge 0 multiplicity 1
 C        -0.116937         0.094042        -0.182882
 C         1.352203         0.076713         0.162838
 C         2.157150         0.936143         1.233590
 C         3.331012         0.429046         0.494510
 C         2.965957        -1.134221         0.436910
 C         3.101604        -1.061547        -1.103732
 C         2.537126         0.273644        -0.847064
 O         2.474518         1.231786        -1.889175
 O         1.582828        -1.298862         0.607059
 H        -0.593465        -0.170719         0.760597
 H        -0.611878         1.019903        -0.703240
 H        -0.160373        -0.827834        -0.868771
 H         2.023800         1.963313         0.977839
 H         1.987353         0.479800         2.215525
 H         4.471838         0.655697         0.662416
 H         3.430322        -1.883990         1.162103
 H         4.131015        -1.015737        -1.280140
 H         2.647441        -1.613669        -1.858072
 H         2.343025         0.643583        -2.690961
