19
Iteration:   446
 C        -0.112811         0.091558        -0.171875
 C         1.288154         0.023922         0.204665
 C         2.130171         0.960426         1.209731
 C         3.344353         0.338530         0.442157
 C         2.956195        -1.161205         0.472246
 C         3.253711        -1.080530        -1.106808
 C         2.551100         0.270011        -0.865536
 O         2.452602         1.296300        -1.893992
 O         1.530783        -1.272857         0.622159
 H        -0.741454        -0.150223         0.658817
 H        -0.414243         1.125716        -0.554000
 H        -0.267474        -0.639710        -0.966910
 H         1.868748         1.996535         1.171755
 H         2.142131         0.738245         2.305472
 H         4.434493         0.605893         0.333434
 H         3.596968        -1.723279         1.221237
 H         4.307019        -1.034242        -1.442723
 H         2.683491        -1.833741        -1.684179
 H         2.247254         0.767269        -2.714542
