19
Iteration:   146
 C        -0.144655         0.103623        -0.242183
 C         1.241438         0.066338         0.201068
 C         2.107170         0.958759         1.222232
 C         3.284225         0.461898         0.479930
 C         3.018594        -1.207649         0.421939
 C         3.155853        -1.091091        -1.092414
 C         2.582714         0.316533        -0.880260
 O         2.508797         1.259576        -1.892899
 O         1.639403        -1.356976         0.697985
 H        -0.950086         0.068945         0.507288
 H        -0.285020         1.018295        -0.795772
 H        -0.322373        -0.679269        -0.954401
 H         1.899018         1.983456         1.020213
 H         1.918600         0.649608         2.273066
 H         4.298479         0.842275         0.618056
 H         3.664132        -1.875241         1.089448
 H         4.235394        -1.198913        -1.388807
 H         2.568849        -1.874950        -1.618661
 H         2.186276         0.861965        -2.758045
