19
Iteration:  1507
 C        -0.092246         0.075984        -0.453320
 C         1.332616        -0.041139         0.054458
 C         1.929280         0.887802         1.099299
 C         3.253949         0.474648         0.507746
 C         3.133968        -1.125448         0.446358
 C         3.205221        -1.112587        -1.045147
 C         2.544250         0.249888        -0.814116
 O         2.261894         1.268394        -1.679664
 O         1.752165        -1.260254         0.710637
 H        -0.702068        -0.220253         0.356064
 H        -0.254528         1.098917        -0.651887
 H        -0.117370        -0.563865        -1.455946
 H         1.778477         1.997212         0.989087
 H         1.787953         0.475227         2.081995
 H         4.333163         0.869647         0.612379
 H         3.751147        -1.689327         1.160178
 H         4.251590        -0.924539        -1.384639
 H         2.646650        -2.010450        -1.421810
 H         3.132324         1.462750        -2.124639
