19
Iteration:  2502
 C        -0.125480        -0.065646        -0.416318
 C         1.366585         0.002286         0.208008
 C         2.067439         1.058822         1.240630
 C         3.265475         0.469699         0.515389
 C         3.085440        -1.215854         0.443020
 C         3.258617        -0.995000        -1.176278
 C         2.582068         0.267225        -0.802037
 O         2.313585         1.312978        -1.785960
 O         1.676566        -1.356861         0.685580
 H        -0.928873        -0.212134         0.485075
 H        -0.135969         0.912508        -0.933937
 H        -0.339593        -0.876949        -1.226901
 H         1.783939         2.052276         0.799284
 H         1.854079         0.943695         2.288173
 H         4.332702         0.860878         0.603713
 H         3.699441        -1.751159         1.133836
 H         4.241472        -1.072213        -1.584437
 H         2.598470        -1.744950        -1.696383
 H         1.580105         0.869963        -2.210081
