19
Iteration:  3485
 C        -0.073959         0.006121        -0.322300
 C         1.348580         0.073322         0.232608
 C         2.102518         1.005729         1.203103
 C         3.307078         0.491070         0.421899
 C         3.137951        -1.201706         0.392078
 C         3.213321        -1.124006        -1.048388
 C         2.463965         0.270113        -0.819314
 O         2.277970         1.180836        -1.749536
 O         1.690840        -1.239396         0.598128
 H        -0.840097        -0.115563         0.340010
 H        -0.318352         1.049875        -0.717564
 H        -0.090509        -0.816390        -1.095370
 H         1.871001         2.088037         0.964113
 H         1.967659         0.698482         2.279246
 H         4.331345         0.852884         0.278705
 H         3.857166        -1.883241         0.949817
 H         4.230672        -0.926981        -1.443247
 H         2.710067        -1.849005        -1.676551
 H         1.313791         1.127388        -1.974111
