19
Iteration:    94charge 0 multiplicity 1
 C        -0.244585         0.136119        -0.213079
 C         1.266113         0.008497         0.058416
 C         2.032222         0.984021         1.107754
 C         3.334316         0.384678         0.515654
 C         3.139190        -1.169844         0.508268
 C         3.202201        -1.167103        -1.090578
 C         2.666247         0.198708        -0.895501
 O         2.474411         1.280319        -1.872710
 O         1.624928        -1.275698         0.671361
 H        -0.740656        -0.010332         0.714908
 H        -0.662619         1.097155        -0.459334
 H        -0.646434        -0.611908        -0.930521
 H         1.791282         2.067101         0.869323
 H         1.803182         0.865246         2.173580
 H         4.443114         0.650223         0.764737
 H         3.653979        -1.832709         1.177276
 H         4.342276        -1.220127        -1.489544
 H         2.504786        -1.873024        -1.741579
 H         1.708202         1.825559        -1.561823
