19
Iteration:  2022charge 0 multiplicity 1
 C        -0.175138        -0.026672        -0.263750
 C         1.315874         0.016872         0.100345
 C         1.965254         1.005439         1.122173
 C         3.291102         0.421988         0.520155
 C         3.094726        -1.172621         0.465180
 C         3.300541        -1.124086        -1.046757
 C         2.628720         0.276007        -0.875355
 O         2.277041         1.285369        -1.827359
 O         1.711895        -1.284771         0.612672
 H        -0.797796        -0.091410         0.546668
 H        -0.389674         0.935488        -0.798327
 H        -0.269187        -0.813095        -1.183717
 H         1.854542         2.038995         0.850918
 H         1.788270         0.908404         2.187643
 H         4.285833         0.696877         0.805325
 H         3.566781        -2.042603         1.032655
 H         4.398613        -0.893273        -1.158309
 H         3.057624        -1.963120        -1.732311
 H         2.152192         1.984380        -1.191875
