19
Iteration:  3906charge 0 multiplicity 1
 C        -0.222503         0.052637        -0.108317
 C         1.305490        -0.027381         0.196832
 C         2.009364         0.954860         1.126588
 C         3.251176         0.450468         0.434700
 C         3.125875        -1.117730         0.415399
 C         3.163310        -1.089275        -1.164578
 C         2.489068         0.255268        -0.895525
 O         2.425466         1.248482        -1.891028
 O         1.800534        -1.304980         0.758614
 H        -0.936448         0.043099         0.831644
 H        -0.558865         1.071264        -0.390749
 H        -0.654836        -0.788818        -0.751768
 H         1.914294         2.027540         0.839287
 H         1.814649         0.569609         2.095681
 H         4.245742         0.897578         0.529747
 H         3.852699        -1.775309         0.934118
 H         4.143663        -0.788104        -1.471600
 H         2.544014        -1.677322        -1.793608
 H         3.085752         1.111264        -2.568749
