19
Iteration:   296charge 0 multiplicity 1
 C        -0.154359         0.262408        -0.178852
 C         1.313090         0.027517         0.085927
 C         1.974460         0.977017         1.036521
 C         3.233898         0.374895         0.365284
 C         3.116229        -1.200010         0.445091
 C         3.177430        -1.161524        -1.125637
 C         2.523156         0.157031        -0.880683
 O         2.509686         1.261919        -1.643333
 O         1.703741        -1.268927         0.708115
 H        -0.798963         0.000254         0.764918
 H        -0.281050         1.344835        -0.436041
 H        -0.616894        -0.367044        -0.942258
 H         1.724002         2.018711         0.927622
 H         1.876713         0.525517         2.075277
 H         4.152633         0.802204         0.316350
 H         3.765248        -1.941523         1.066789
 H         4.315202        -1.030339        -1.328913
 H         2.668972        -1.970802        -1.722009
 H         2.104110         1.018070        -2.530125
