19
Iteration:   597
 C        -0.234814         0.200544        -0.241849
 C         1.233516         0.047447         0.162101
 C         2.041851         0.889240         1.224330
 C         3.325354         0.384598         0.456084
 C         3.201141        -1.168635         0.422630
 C         3.144462        -1.193910        -1.080965
 C         2.459353         0.268133        -0.876241
 O         2.474935         1.207337        -1.950071
 O         1.714540        -1.280330         0.715819
 H        -0.869666        -0.047110         0.628938
 H        -0.384658         1.333166        -0.392358
 H        -0.586821        -0.349358        -1.181709
 H         1.947130         1.928584         1.004724
 H         1.906859         0.572361         2.259366
 H         4.388371         0.879348         0.334607
 H         3.673281        -1.859010         1.169797
 H         3.991704        -0.896504        -1.634774
 H         2.667279        -1.942179        -1.731604
 H         2.712075         1.946155        -1.313242
