19
Iteration:  1601
 C        -0.165542         0.064629        -0.197224
 C         1.296488        -0.130720         0.055850
 C         1.928821         0.949305         1.021813
 C         3.223112         0.496829         0.481938
 C         3.129477        -1.152436         0.557676
 C         3.338203        -1.098215        -1.063118
 C         2.543021         0.261947        -0.808521
 O         2.391288         1.407828        -1.759483
 O         1.695737        -1.428020         0.595440
 H        -0.704731         0.113702         0.721985
 H        -0.424570         1.097692        -0.750200
 H        -0.545596        -0.699117        -0.825010
 H         1.682813         1.977063         0.653200
 H         1.525023         0.695505         2.002994
 H         4.123442         1.067406         0.515628
 H         3.625016        -1.810094         1.309346
 H         4.430590        -0.833156        -1.372162
 H         2.787573        -1.878042        -1.641650
 H         3.109920         1.426299        -2.374199
