19
Iteration:  3617
 C        -0.078642         0.132268        -0.308748
 C         1.318395         0.014817         0.256769
 C         2.013619         0.997434         1.180952
 C         3.378785         0.461456         0.533124
 C         3.269608        -1.199342         0.426324
 C         3.159112        -1.096802        -1.134885
 C         2.345174         0.249942        -0.871704
 O         2.298721         1.173349        -1.827244
 O         1.777032        -1.311236         0.700511
 H        -0.915466        -0.249625         0.332365
 H        -0.509774         1.046424        -0.925886
 H        -0.214033        -0.673646        -1.188394
 H         2.110472         2.045019         0.887118
 H         1.615196         0.944095         2.266096
 H         4.377059         0.999866         0.556646
 H         4.011057        -1.843957         0.885649
 H         3.931586        -0.771065        -1.777077
 H         2.587871        -1.948770        -1.573944
 H         1.454243         1.470056        -2.213104
