19
Iteration:  3514
 C        -0.159453        -0.004835        -0.147669
 C         1.318106         0.005846         0.150422
 C         2.036798         0.905173         1.181183
 C         3.270672         0.410959         0.530509
 C         3.170004        -1.129582         0.418796
 C         3.196696        -1.058627        -1.088636
 C         2.518574         0.279391        -0.958560
 O         2.411227         1.333757        -1.936930
 O         1.708502        -1.287571         0.753093
 H        -0.852235        -0.049897         0.769118
 H        -0.374377         0.958012        -0.585827
 H        -0.615300        -0.905066        -0.866163
 H         1.797480         2.020413         0.987386
 H         1.644416         0.730901         2.204983
 H         4.283876         0.747966         0.530323
 H         3.901445        -1.844866         0.809249
 H         4.260575        -1.126372        -1.461998
 H         2.554403        -1.821390        -1.567130
 H         1.801124         1.191505        -2.714225
