19
Iteration:  2133
 C        -0.066459         0.064446        -0.282566
 C         1.324070        -0.053875         0.141066
 C         2.038222         1.003529         1.061030
 C         3.299390         0.376980         0.552199
 C         3.062902        -1.155847         0.484444
 C         3.283639        -1.060307        -1.111060
 C         2.589827         0.290498        -0.833304
 O         2.178001         1.254491        -1.793477
 O         1.698662        -1.344590         0.632070
 H        -0.855712        -0.079749         0.401807
 H        -0.258916         1.132741        -0.789640
 H        -0.242849        -0.725542        -1.137734
 H         1.870945         2.034046         0.708767
 H         1.696606         1.055605         2.071746
 H         4.360297         0.684717         0.663521
 H         3.559956        -1.841134         1.175984
 H         4.393345        -1.037549        -1.190477
 H         2.841570        -1.875038        -1.726682
 H         2.747248         2.036020        -1.543007
