19
Iteration:   793
 C        -0.098626        -0.019263        -0.215331
 C         1.317385         0.068262         0.165086
 C         1.939216         0.934352         1.168821
 C         3.253577         0.419341         0.561858
 C         3.092531        -1.157824         0.449337
 C         3.126661        -1.059503        -1.116447
 C         2.489043         0.309346        -0.883021
 O         2.525163         1.149405        -1.910459
 O         1.725588        -1.259205         0.646100
 H        -0.806411        -0.404101         0.457848
 H        -0.311790         1.062326        -0.463893
 H        -0.308248        -0.472183        -1.176599
 H         1.943116         2.072686         1.017076
 H         1.562853         0.682348         2.237728
 H         4.157251         0.963270         0.659185
 H         3.645524        -1.848960         1.069715
 H         4.144887        -0.903592        -1.631095
 H         2.501610        -1.907365        -1.699409
 H         2.552749         2.103427        -1.614081
