19
Iteration:   324
 C        -0.139700         0.200633        -0.229466
 C         1.304438        -0.007812         0.218953
 C         2.036697         0.958709         1.114310
 C         3.230594         0.361564         0.511317
 C         3.170122        -1.242773         0.459284
 C         3.097147        -1.202889        -1.096526
 C         2.549491         0.275649        -0.903859
 O         2.481976         1.384303        -1.833911
 O         1.687471        -1.335406         0.669787
 H        -0.883720         0.209669         0.534496
 H        -0.068896         1.189049        -0.705772
 H        -0.449281        -0.568789        -0.989764
 H         1.848752         2.054738         0.884040
 H         1.924268         1.001473         2.187677
 H         4.313517         0.930400         0.610570
 H         3.692597        -1.988592         1.029343
 H         4.123344        -1.308639        -1.503873
 H         2.351772        -1.946975        -1.472594
 H         1.982553         1.063278        -2.637949
