19
Iteration:  3450charge 0 multiplicity 1
 C        -0.138183         0.106795        -0.270278
 C         1.344020        -0.023032         0.123589
 C         1.933538         0.922082         1.072015
 C         3.312962         0.372280         0.519234
 C         3.158325        -1.198838         0.419314
 C         3.189461        -1.086268        -1.124729
 C         2.587753         0.260028        -0.899557
 O         2.286802         1.285839        -1.821018
 O         1.816554        -1.267057         0.828623
 H        -0.845256        -0.196033         0.475164
 H        -0.198237         1.173191        -0.518041
 H        -0.466089        -0.311475        -1.363050
 H         1.783395         2.066176         0.800046
 H         1.655666         0.796804         2.173124
 H         4.249444         0.860723         0.684423
 H         3.993117        -1.837634         0.819208
 H         4.237958        -1.145938        -1.541592
 H         2.517847        -1.781426        -1.644012
 H         1.298755         1.370503        -1.881591
