19
Iteration:  2967
 C        -0.137733        -0.027815        -0.397283
 C         1.280397         0.086094         0.210115
 C         2.101364         0.970601         1.210497
 C         3.345854         0.356867         0.495392
 C         3.157888        -1.191463         0.413166
 C         3.148697        -1.018457        -1.115430
 C         2.498527         0.312010        -0.829842
 O         2.260777         1.196316        -1.845170
 O         1.715703        -1.267887         0.725485
 H        -0.937942        -0.405949         0.215035
 H        -0.322299         1.022075        -0.781125
 H         0.028651        -0.806600        -1.215960
 H         2.167122         2.063266         1.154240
 H         2.051361         0.635448         2.200725
 H         4.402163         0.848870         0.458756
 H         3.901155        -1.894490         0.859014
 H         4.227817        -0.881014        -1.436359
 H         2.638076        -1.848309        -1.666581
 H         1.999629         2.089641        -1.515528
