19
Iteration:  4882
 C        -0.209589        -0.027802         0.013412
 C         1.316758         0.028372         0.144447
 C         1.957549         1.008600         1.179943
 C         3.247879         0.423298         0.492311
 C         3.186423        -1.098644         0.376578
 C         3.154747        -1.046786        -1.070378
 C         2.476137         0.281896        -0.961516
 O         2.487540         1.122404        -1.983542
 O         1.760486        -1.268828         0.645809
 H        -0.739430        -0.319222         0.890281
 H        -0.701532         0.849576        -0.403163
 H        -0.460899        -0.962955        -0.670920
 H         1.699757         1.949962         0.728596
 H         1.756664         1.051884         2.214409
 H         4.240909         0.964024         0.652324
 H         3.859732        -1.729924         0.927376
 H         4.105961        -1.018568        -1.588253
 H         2.561884        -1.730584        -1.706814
 H         2.681182         1.990557        -1.552859
