19
Iteration:  2447charge 0 multiplicity 1
 C        -0.232540         0.056051        -0.291300
 C         1.256052        -0.098301         0.185408
 C         1.960086         0.922706         1.143270
 C         3.235902         0.552985         0.441391
 C         3.176427        -1.111448         0.408118
 C         3.204874        -1.044030        -1.082711
 C         2.573714         0.242838        -0.903278
 O         2.493515         1.319847        -1.772287
 O         1.752943        -1.377647         0.714744
 H        -0.990757        -0.382288         0.579958
 H        -0.427971         1.098511        -0.489524
 H        -0.428750        -0.538880        -1.274472
 H         1.527726         1.926757         0.892549
 H         1.903314         0.651320         2.191918
 H         4.232727         0.993163         0.695558
 H         3.848653        -1.746597         0.915100
 H         4.244931        -0.971983        -1.280092
 H         2.782610        -1.960816        -1.516427
 H         1.805055         1.142359        -2.407359
