19
Iteration:  3258charge 0 multiplicity 1
 C        -0.219165         0.081005        -0.122389
 C         1.299049         0.033253         0.128054
 C         2.032927         0.896507         1.240302
 C         3.305631         0.384460         0.388578
 C         3.110823        -1.150096         0.445193
 C         3.219149        -1.137168        -1.151122
 C         2.459252         0.267209        -0.911185
 O         2.478907         1.248678        -1.936676
 O         1.737165        -1.221556         0.726419
 H        -0.739774        -0.437099         0.825519
 H        -0.734839         1.101364        -0.367494
 H        -0.433519        -0.469758        -0.986446
 H         1.862672         1.934003         1.162832
 H         1.770556         0.615737         2.255708
 H         4.286547         0.859857         0.590061
 H         3.779931        -1.911779         0.930042
 H         4.248904        -0.960488        -1.523428
 H         2.860364        -1.966181        -1.740656
 H         1.684006         1.833232        -1.803445
