19
Iteration:  2441charge 0 multiplicity 1
 C        -0.227776         0.005029        -0.242288
 C         1.215967        -0.065755         0.199209
 C         1.959945         0.880832         1.120797
 C         3.224009         0.556661         0.463470
 C         3.149646        -1.121238         0.425238
 C         3.191672        -1.019960        -1.066218
 C         2.553804         0.282958        -0.893511
 O         2.542809         1.293710        -1.812947
 O         1.775878        -1.372399         0.678757
 H        -0.903489        -0.221516         0.436206
 H        -0.450671         1.134774        -0.385663
 H        -0.354264        -0.525758        -1.127325
 H         1.535402         1.870194         0.913192
 H         1.802082         0.707871         2.219517
 H         4.235281         0.960785         0.590929
 H         3.941019        -1.767809         0.941029
 H         4.295044        -0.940703        -1.329792
 H         2.694270        -1.872200        -1.521969
 H         1.834311         1.224566        -2.472974
