19
Iteration:  1797charge 0 multiplicity 1
 C        -0.112984         0.070000        -0.377833
 C         1.304517        -0.030771         0.051657
 C         1.949541         0.882309         1.099976
 C         3.254662         0.427817         0.519773
 C         3.137918        -1.071718         0.512746
 C         3.242289        -1.129915        -1.051396
 C         2.513791         0.220295        -0.837981
 O         2.316988         1.352475        -1.699965
 O         1.760704        -1.357014         0.672033
 H        -0.991016         0.165004         0.440884
 H        -0.120476         1.192949        -0.867721
 H        -0.559178        -0.652928        -1.002230
 H         1.571631         1.879901         0.734761
 H         1.585835         0.709511         2.090212
 H         4.263344         0.871767         0.626895
 H         3.910891        -1.648539         1.062778
 H         4.207494        -0.830791        -1.435323
 H         2.829551        -1.876567        -1.704932
 H         3.105395         1.376393        -2.299301
