19
Iteration:  1546charge 0 multiplicity 1
 C        -0.054072        -0.039389        -0.347032
 C         1.299936        -0.044936         0.183405
 C         1.984646         0.943692         1.224691
 C         3.245883         0.447898         0.555122
 C         3.114768        -1.113249         0.435955
 C         3.144648        -0.974461        -1.053820
 C         2.519706         0.348108        -0.809382
 O         2.424997         1.193637        -1.908789
 O         1.678519        -1.309054         0.647483
 H        -0.850289        -0.425754         0.309580
 H        -0.547870         0.922924        -0.819862
 H        -0.160593        -0.682491        -1.154435
 H         1.713885         1.957413         0.911198
 H         1.669356         0.785389         2.275761
 H         4.225212         0.746786         0.788850
 H         3.654002        -1.937485         0.911064
 H         4.181980        -0.805589        -1.437522
 H         2.755767        -1.799864        -1.653538
 H         3.159859         1.806387        -2.021783
