19
Iteration:  2878charge 0 multiplicity 1
 C        -0.244858         0.010640        -0.029768
 C         1.289842         0.027172         0.163800
 C         1.979658         0.965481         1.153461
 C         3.270093         0.438027         0.452442
 C         3.124007        -1.154278         0.435269
 C         3.285201        -1.016816        -1.114302
 C         2.492413         0.244845        -0.857674
 O         2.516773         1.230967        -1.892506
 O         1.687411        -1.361599         0.527477
 H        -0.688237        -0.157023         0.996517
 H        -0.807843         0.957743        -0.463147
 H        -0.530605        -0.792997        -0.682892
 H         1.687386         1.929602         0.728406
 H         2.010785         0.915949         2.236763
 H         4.269474         0.940659         0.467287
 H         3.696057        -1.855512         1.068193
 H         4.392648        -0.662753        -1.334115
 H         2.950852        -1.835861        -1.794075
 H         1.927781         1.996086        -1.637475
