19
Iteration:  1588charge 0 multiplicity 1
 C        -0.211168         0.014539        -0.201249
 C         1.282839        -0.054688         0.079388
 C         1.861125         0.900640         1.072695
 C         3.254999         0.407666         0.534389
 C         3.157266        -1.105594         0.469159
 C         3.354103        -1.127412        -0.974022
 C         2.598235         0.245378        -0.962066
 O         2.353170         1.427768        -1.780084
 O         1.663990        -1.337279         0.579826
 H        -0.684066        -0.049025         0.849159
 H        -0.323917         1.054569        -0.625420
 H        -0.573000        -0.745472        -0.747058
 H         1.719244         1.880327         0.683457
 H         1.732821         0.985567         2.167270
 H         4.222974         0.817673         0.693067
 H         3.762602        -1.695980         1.155224
 H         4.553613        -1.069300        -1.248699
 H         3.018470        -2.046014        -1.532928
 H         3.244221         1.588447        -2.220401
