19
Iteration:   533
 C        -0.148670         0.155794        -0.194672
 C         1.349194         0.137431         0.147836
 C         2.095091         0.994359         1.143233
 C         3.320187         0.272110         0.513357
 C         3.052197        -1.186827         0.415967
 C         3.235053        -1.227556        -1.134125
 C         2.561147         0.184172        -0.903926
 O         2.319154         1.315463        -1.754049
 O         1.659086        -1.251087         0.632677
 H        -0.811360         0.056419         0.702839
 H        -0.351420         1.138264        -0.820391
 H        -0.447848        -0.696983        -0.887735
 H         2.090762         2.003054         0.758040
 H         1.975023         1.017527         2.233526
 H         4.312572         0.724383         0.806468
 H         3.589121        -1.825570         1.187531
 H         4.164123        -0.914126        -1.368877
 H         2.854970        -2.002046        -1.701482
 H         1.927243         1.051032        -2.623491
