19
Iteration:  4112
 C        -0.076881         0.062246        -0.351828
 C         1.353718        -0.029333         0.229223
 C         2.032743         0.954399         1.181266
 C         3.351536         0.429609         0.531946
 C         3.190537        -1.098742         0.374636
 C         3.174162        -1.104376        -1.177272
 C         2.545943         0.252806        -0.876260
 O         2.099668         1.219658        -1.866999
 O         1.752772        -1.288251         0.831915
 H        -0.861368        -0.126645         0.443912
 H        -0.164471         1.140336        -0.659209
 H        -0.268337        -0.343748        -1.266339
 H         1.852301         2.074119         0.887098
 H         1.691137         0.633042         2.175579
 H         4.417560         0.776360         0.445023
 H         3.818223        -1.935180         0.815903
 H         4.259021        -1.143919        -1.378062
 H         2.391763        -1.814542        -1.501125
 H         2.882518         1.768796        -2.140904
