19
Iteration:  4973
 C        -0.083623         0.062649        -0.218561
 C         1.347214        -0.008555         0.193148
 C         2.058061         0.977413         1.086661
 C         3.377583         0.450696         0.558613
 C         3.202711        -1.134375         0.430618
 C         3.162176        -1.112592        -1.088022
 C         2.526802         0.274769        -0.869335
 O         2.217720         1.143782        -1.904564
 O         1.698187        -1.273011         0.697525
 H        -0.932084        -0.026546         0.510903
 H        -0.131872         1.109696        -0.621238
 H        -0.220170        -0.664889        -0.925496
 H         1.720025         1.961648         0.753468
 H         1.790206         0.896381         2.190795
 H         4.368312         0.976608         0.681579
 H         3.807675        -1.885477         0.998503
 H         4.213912        -0.853286        -1.462756
 H         2.734878        -1.746687        -1.817574
 H         1.431640         1.706551        -1.918504
