19
Iteration:  2024
 C        -0.174578        -0.042551        -0.271093
 C         1.308012         0.040443         0.091545
 C         1.962809         1.000607         1.123028
 C         3.286777         0.432972         0.523763
 C         3.085528        -1.177321         0.461451
 C         3.308524        -1.122486        -1.039708
 C         2.618872         0.263396        -0.885444
 O         2.288211         1.283495        -1.816943
 O         1.712940        -1.289465         0.609128
 H        -0.748019        -0.126562         0.631678
 H        -0.359600         0.994811        -0.763644
 H        -0.312694        -0.775648        -1.074962
 H         1.922642         2.080897         0.805676
 H         1.766478         0.890921         2.190443
 H         4.313995         0.708590         0.776832
 H         3.579448        -2.020226         1.012410
 H         4.448713        -0.891317        -1.154125
 H         3.042503        -1.978017        -1.745656
 H         2.099354         2.003714        -1.209226
