19
Iteration:  1975
 C        -0.105059         0.087884        -0.448970
 C         1.271545        -0.025517         0.248125
 C         1.905210         0.869766         1.263730
 C         3.248063         0.517009         0.585500
 C         3.248097        -1.139263         0.399335
 C         3.164222        -1.088693        -1.172804
 C         2.473553         0.270594        -0.827291
 O         2.348795         1.218375        -1.863612
 O         1.771270        -1.278251         0.728653
 H        -0.877623         0.069068         0.374114
 H        -0.124781         0.970595        -1.005940
 H         0.020606        -0.844587        -1.247930
 H         1.515638         1.861146         1.178592
 H         1.754575         0.502769         2.297145
 H         4.249998         0.992775         0.545272
 H         3.821375        -1.792212         1.013315
 H         4.050306        -1.075740        -1.733948
 H         2.500290        -1.791706        -1.614498
 H         3.222655         1.698206        -2.018456
