19
Iteration:  2066
 C        -0.256972        -0.031520        -0.136399
 C         1.223740        -0.065812         0.219052
 C         1.912953         0.948703         1.177162
 C         3.229669         0.503497         0.539617
 C         3.082646        -1.143171         0.361750
 C         3.264547        -1.072875        -1.090542
 C         2.543341         0.326090        -0.905399
 O         2.652447         1.321631        -1.901924
 O         1.754088        -1.357400         0.638908
 H        -0.875030        -0.198808         0.665970
 H        -0.624240         1.015071        -0.387185
 H        -0.627174        -0.667261        -1.115313
 H         1.695133         1.958075         0.919125
 H         1.624126         0.840163         2.213556
 H         4.102524         1.103648         0.741966
 H         3.792838        -1.729814         1.019723
 H         4.323229        -1.152078        -1.414901
 H         2.634731        -1.790415        -1.643627
 H         1.990871         1.149225        -2.580474
