19
Iteration:  4414
 C        -0.183078         0.038578        -0.080390
 C         1.352119        -0.029511         0.130970
 C         2.033767         1.072535         1.132698
 C         3.240520         0.449723         0.498744
 C         3.146911        -1.180960         0.384198
 C         3.267849        -1.077872        -1.129674
 C         2.503018         0.261028        -0.911121
 O         2.400333         1.217080        -1.780039
 O         1.693368        -1.321549         0.650463
 H        -0.697139        -0.283080         0.791098
 H        -0.460687         0.955810        -0.495534
 H        -0.313815        -0.702538        -0.910553
 H         1.932539         2.048539         0.548239
 H         1.827717         1.298006         2.196363
 H         4.263038         0.905908         0.464605
 H         3.658452        -1.809446         1.196485
 H         4.208830        -1.064222        -1.677043
 H         2.688476        -1.760041        -1.833167
 H         1.591451         1.211815        -2.313741
