19
Iteration:  3019charge 0 multiplicity 1
 C        -0.284413         0.100104        -0.203112
 C         1.260731        -0.084411         0.151580
 C         1.988549         0.937555         1.155992
 C         3.348533         0.440931         0.502285
 C         3.181497        -1.138067         0.415637
 C         3.227664        -1.084604        -1.122313
 C         2.487943         0.232664        -0.846122
 O         2.441668         1.239486        -1.788680
 O         1.766820        -1.251703         0.616439
 H        -0.864772         0.137913         0.859129
 H        -0.518742         1.094337        -0.747884
 H        -0.566985        -0.663293        -0.865800
 H         2.000051         1.953685         0.724002
 H         1.870082         0.914818         2.266504
 H         4.318667         0.932670         0.607305
 H         3.782843        -1.909651         0.932773
 H         4.250402        -0.910682        -1.609666
 H         2.853170        -1.994589        -1.631876
 H         1.546689         1.322546        -2.230365
