19
Iteration:  3207charge 0 multiplicity 1
 C        -0.227874         0.003582         0.094412
 C         1.269952         0.037976         0.099845
 C         2.013123         1.036969         1.114716
 C         3.249002         0.431876         0.480023
 C         3.141631        -1.171139         0.417091
 C         3.243088        -1.131112        -1.131366
 C         2.463665         0.259970        -0.915642
 O         2.583231         1.209777        -1.858673
 O         1.663959        -1.301953         0.531421
 H        -0.638571         0.019251         1.104423
 H        -0.530253         1.017301        -0.237320
 H        -0.728504        -0.738958        -0.545650
 H         1.813143         2.136697         0.781896
 H         1.787059         0.847512         2.250310
 H         4.216366         1.027923         0.423999
 H         3.786374        -1.794715         0.957353
 H         4.251994        -0.968400        -1.533483
 H         2.911425        -2.011795        -1.776166
 H         1.878169         1.850109        -1.913460
