19
Iteration:  1965
 C        -0.089726         0.038738        -0.375278
 C         1.268593         0.004562         0.171333
 C         1.933193         0.849220         1.266383
 C         3.262803         0.483502         0.515909
 C         3.209867        -1.060105         0.453764
 C         3.218568        -1.097640        -1.164778
 C         2.553990         0.297484        -0.831114
 O         2.317187         1.268227        -1.849633
 O         1.705041        -1.326513         0.712233
 H        -1.006459        -0.034457         0.220828
 H        -0.191598         0.954358        -0.867536
 H        -0.371216        -0.857441        -1.218719
 H         1.887172         1.888341         1.085277
 H         1.744496         0.644038         2.326403
 H         4.177280         1.051377         0.741284
 H         3.719269        -1.811916         1.030767
 H         4.118192        -1.091482        -1.778166
 H         2.519943        -1.866793        -1.466070
 H         3.281809         1.403282        -2.111739
