19
Iteration:  4233charge 0 multiplicity 1
 C        -0.208612         0.008957        -0.069498
 C         1.240576        -0.029807         0.183556
 C         2.054222         0.930073         1.162736
 C         3.275700         0.434739         0.459188
 C         3.209266        -1.112784         0.442883
 C         3.261089        -1.074127        -1.083147
 C         2.529615         0.291756        -0.897778
 O         2.360322         1.168723        -1.970892
 O         1.675743        -1.228851         0.560183
 H        -0.643393        -0.286498         0.955164
 H        -0.813982         0.950945        -0.424969
 H        -0.573414        -0.794163        -0.681477
 H         2.031337         2.040493         0.993825
 H         1.966613         0.608868         2.222298
 H         4.288661         0.891807         0.672215
 H         3.950869        -1.564544         1.045408
 H         4.351592        -0.926296        -1.298418
 H         2.724037        -1.883028        -1.528824
 H         2.322489         2.068786        -1.581629
