19
Iteration:  3282charge 0 multiplicity 1
 C        -0.051564         0.110322        -0.311584
 C         1.316377        -0.054069         0.253254
 C         2.129397         0.992339         1.239869
 C         3.295404         0.476111         0.464538
 C         3.175514        -1.092730         0.420767
 C         3.087164        -1.071940        -1.123330
 C         2.451169         0.233697        -0.820802
 O         2.344243         1.135181        -1.902797
 O         1.696255        -1.324319         0.636738
 H        -0.906188        -0.234377         0.433670
 H        -0.275550         1.181463        -0.639272
 H        -0.114523        -0.408386        -1.211850
 H         1.925601         2.101689         1.256942
 H         2.151633         0.682827         2.355272
 H         4.288711         0.996512         0.578832
 H         3.745462        -1.852316         0.898689
 H         3.967280        -0.965690        -1.739466
 H         2.456549        -1.921035        -1.499984
 H         1.799701         1.846593        -1.458914
