19
Iteration:   376charge 0 multiplicity 1
 C        -0.183570         0.091411        -0.278547
 C         1.335232         0.126649         0.185799
 C         2.089277         0.957453         1.207017
 C         3.333851         0.344818         0.460407
 C         3.031304        -1.214670         0.424514
 C         3.172529        -1.199109        -1.081157
 C         2.528258         0.287804        -0.864277
 O         2.467204         1.308683        -1.850633
 O         1.680171        -1.266943         0.664300
 H        -0.897788        -0.001696         0.640992
 H        -0.484419         1.032105        -0.810653
 H        -0.230833        -0.793971        -1.063024
 H         1.970357         2.087909         1.052009
 H         1.743466         0.873693         2.240122
 H         4.468356         0.598088         0.504011
 H         3.512112        -1.967608         1.004358
 H         4.153269        -1.051088        -1.373459
 H         2.758625        -2.035499        -1.568712
 H         1.499885         1.396285        -2.095559
