19
Iteration:  1902charge 0 multiplicity 1
 C        -0.271294         0.013056        -0.164997
 C         1.296617        -0.076791         0.087174
 C         1.881393         0.941162         1.073392
 C         3.304083         0.448098         0.514599
 C         3.093279        -1.173296         0.510019
 C         3.313226        -1.043577        -1.093834
 C         2.538995         0.302351        -0.840710
 O         2.470782         1.363920        -1.820138
 O         1.718560        -1.352190         0.625294
 H        -0.679425        -0.304698         0.716116
 H        -0.540282         1.018004        -0.356059
 H        -0.535721        -0.577869        -1.019135
 H         1.645827         1.936902         0.687224
 H         1.577888         0.934381         2.157113
 H         4.192301         1.006076         0.670237
 H         3.656791        -1.963146         1.098459
 H         4.396951        -0.790588        -1.467539
 H         2.828355        -1.894288        -1.690851
 H         3.078529         1.051444        -2.510362
