19
Iteration:  1974
 C        -0.103624         0.076054        -0.449180
 C         1.267354        -0.017691         0.248527
 C         1.907350         0.855659         1.261094
 C         3.248357         0.518826         0.581975
 C         3.251524        -1.131245         0.406773
 C         3.175711        -1.092464        -1.180721
 C         2.481252         0.273122        -0.825750
 O         2.345141         1.223457        -1.864457
 O         1.761531        -1.280844         0.729272
 H        -0.907743         0.080121         0.396029
 H        -0.134329         0.990700        -1.001189
 H         0.003235        -0.799953        -1.214701
 H         1.533356         1.887754         1.171764
 H         1.748628         0.529050         2.307781
 H         4.263797         1.000713         0.548560
 H         3.796004        -1.797685         1.006498
 H         4.034251        -1.100588        -1.750880
 H         2.500977        -1.789407        -1.596057
 H         3.241807         1.663514        -2.018074
