19
Iteration:  1058
 C        -0.087195         0.013528        -0.322650
 C         1.293715        -0.079910         0.131881
 C         1.950913         0.946543         1.158042
 C         3.228244         0.503865         0.449880
 C         3.073438        -1.104704         0.458250
 C         3.246441        -1.122633        -1.082255
 C         2.529785         0.195903        -0.862354
 O         2.454332         1.297676        -1.793133
 O         1.702525        -1.309877         0.644634
 H        -0.753664         0.333486         0.501860
 H        -0.200510         0.981425        -0.896858
 H        -0.494990        -0.729311        -1.020654
 H         1.691889         2.014278         1.163987
 H         1.734031         0.590188         2.243297
 H         4.209323         0.775527         0.322140
 H         3.714281        -1.665769         1.185053
 H         4.268533        -0.990758        -1.244547
 H         2.790102        -1.929040        -1.609981
 H         2.236007         2.112101        -1.249533
