19
Iteration:  4389
 C        -0.288617        -0.000053         0.013175
 C         1.276807         0.015127         0.118998
 C         2.038818         0.878803         1.142633
 C         3.261456         0.483066         0.421841
 C         3.100856        -1.139951         0.455259
 C         3.228715        -1.173712        -1.078897
 C         2.497818         0.332477        -0.981751
 O         2.508350         1.293552        -1.930736
 O         1.744121        -1.242582         0.666893
 H        -0.688073        -0.153325         1.025063
 H        -0.632390         0.961806        -0.473908
 H        -0.547936        -0.914134        -0.688170
 H         1.877499         1.976585         1.152747
 H         1.938949         0.493311         2.225263
 H         4.239736         0.819356         0.728331
 H         3.705123        -1.722761         1.216868
 H         4.251450        -0.839924        -1.321054
 H         3.109291        -1.820310        -1.939946
 H         1.847472         1.174419        -2.611643
