19
Iteration:  2707charge 0 multiplicity 1
 C        -0.265454         0.015235        -0.187509
 C         1.260551         0.015940         0.105319
 C         1.901057         0.951925         1.197560
 C         3.260039         0.445451         0.496836
 C         3.198603        -1.179925         0.348903
 C         3.228455        -1.122882        -1.112931
 C         2.568760         0.276150        -0.862147
 O         2.507854         1.303822        -1.820066
 O         1.807875        -1.290636         0.647264
 H        -0.806435        -0.018948         0.891579
 H        -0.565571         0.972253        -0.564927
 H        -0.767792        -0.886160        -0.682132
 H         1.592277         1.981401         0.885539
 H         1.685106         0.659805         2.202104
 H         4.229018         1.007690         0.640210
 H         3.768307        -1.887879         0.927584
 H         4.260972        -0.928449        -1.374566
 H         2.693881        -1.838233        -1.708844
 H         1.576381         1.440178        -2.094237
