19
Iteration:  4114
 C        -0.084437         0.052261        -0.366820
 C         1.364059        -0.034079         0.246525
 C         2.041100         0.957296         1.181843
 C         3.344645         0.431611         0.533994
 C         3.169155        -1.105046         0.367711
 C         3.160790        -1.089136        -1.167384
 C         2.560990         0.264600        -0.898715
 O         2.093598         1.220889        -1.859638
 O         1.756222        -1.291310         0.837285
 H        -0.805835        -0.115388         0.384103
 H        -0.149695         1.166508        -0.631316
 H        -0.262893        -0.437611        -1.298579
 H         1.978071         2.077609         0.854343
 H         1.711512         0.625448         2.221108
 H         4.425701         0.746676         0.438038
 H         3.753032        -1.918006         0.783068
 H         4.303850        -1.122756        -1.339203
 H         2.428180        -1.823946        -1.448419
 H         2.862179         1.729218        -2.169888
