19
Iteration:   974charge 0 multiplicity 1
 C        -0.337009         0.100278        -0.322754
 C         1.276858        -0.034719         0.196466
 C         1.940089         0.992419         1.195534
 C         3.204727         0.456915         0.504223
 C         3.208534        -1.143027         0.482295
 C         3.350023        -1.117519        -1.111454
 C         2.492752         0.182650        -0.878522
 O         2.541329         1.259149        -1.833183
 O         1.723769        -1.273560         0.610584
 H        -1.049778        -0.486442         0.331187
 H        -0.461792         1.104426        -0.261819
 H        -0.543546        -0.282287        -1.348644
 H         1.824925         2.083670         1.052625
 H         1.854215         0.597107         2.164059
 H         4.353976         0.691369         0.810129
 H         3.706850        -1.893617         1.109103
 H         4.410466        -0.953793        -1.541356
 H         2.850291        -2.030929        -1.699151
 H         1.715314         1.691918        -1.653737
