19
Iteration:  4664charge 0 multiplicity 1
 C        -0.143417         0.049594        -0.169080
 C         1.346174        -0.008246         0.119986
 C         2.047298         1.013789         1.148526
 C         3.247671         0.455648         0.536793
 C         3.144233        -1.159222         0.380130
 C         3.222920        -1.105138        -1.142430
 C         2.602502         0.290654        -0.867244
 O         2.335350         1.242589        -1.856023
 O         1.709528        -1.341032         0.721447
 H        -0.659298         0.020759         0.749110
 H        -0.309461         1.020026        -0.503538
 H        -0.532882        -0.845829        -0.820097
 H         1.860851         2.080792         0.722898
 H         1.572757         1.015786         2.155844
 H         4.167557         1.011971         0.597208
 H         3.840373        -1.766347         0.939354
 H         4.186601        -1.001049        -1.573078
 H         2.540832        -1.833692        -1.666353
 H         1.540166         0.960310        -2.331869
