19
Iteration:  1729charge 0 multiplicity 1
 C        -0.209269        -0.024028        -0.217856
 C         1.301806         0.032035         0.072331
 C         1.853167         0.958689         1.151496
 C         3.251062         0.473081         0.552143
 C         3.101735        -1.131372         0.424016
 C         3.319124        -1.147492        -1.067046
 C         2.584476         0.275532        -0.877998
 O         2.403623         1.312672        -1.801578
 O         1.703326        -1.309822         0.576638
 H        -0.750850        -0.463984         0.752241
 H        -0.500428         1.051120        -0.457255
 H        -0.362354        -0.745738        -1.025062
 H         1.763571         2.008721         0.951363
 H         1.701130         0.804210         2.241710
 H         4.214830         0.851025         0.792952
 H         3.680372        -1.753788         1.137402
 H         4.354812        -1.029055        -1.116391
 H         3.037291        -1.984695        -1.648367
 H         3.244912         1.516202        -2.287050
