19
Iteration:   992
 C        -0.168743         0.074291        -0.326536
 C         1.258818         0.029908         0.086687
 C         2.005718         0.899137         1.263883
 C         3.294693         0.438972         0.569409
 C         3.090935        -1.130110         0.450985
 C         3.257322        -1.072507        -1.023944
 C         2.587378         0.311457        -0.843304
 O         2.444606         1.214271        -1.931724
 O         1.682961        -1.337733         0.605703
 H        -0.782235        -0.485032         0.393202
 H        -0.645159         1.098381        -0.284670
 H        -0.212821        -0.406619        -1.293610
 H         1.838662         1.959197         1.014107
 H         1.752121         0.564708         2.373645
 H         4.161467         0.986276         0.587170
 H         3.705333        -1.719094         1.182246
 H         4.281584        -0.938191        -1.320455
 H         2.795868        -1.941244        -1.553151
 H         1.683376         1.773815        -1.821840
