19
Iteration:  4814charge 0 multiplicity 1
 C        -0.116147         0.116939        -0.248265
 C         1.322985        -0.047674         0.231898
 C         2.015270         0.982642         1.172344
 C         3.304227         0.542179         0.543064
 C         3.251314        -1.123813         0.427420
 C         3.074230        -1.055865        -1.147188
 C         2.550617         0.191878        -0.873383
 O         2.310395         1.138808        -1.884787
 O         1.774172        -1.295090         0.678932
 H        -0.828360        -0.038365         0.609289
 H        -0.268012         1.106870        -0.714441
 H        -0.357675        -0.666258        -1.087148
 H         1.671650         1.921638         0.796326
 H         2.015648         0.941883         2.217398
 H         4.264296         1.022993         0.550049
 H         3.881268        -1.871912         0.999078
 H         4.028364        -1.042709        -1.632829
 H         2.567257        -1.986996        -1.601969
 H         1.376224         1.368984        -1.917049
