19
Iteration:  2763
 C        -0.231494        -0.043148        -0.095785
 C         1.269923         0.105810         0.125064
 C         2.005044         0.955080         1.139857
 C         3.285605         0.430111         0.544993
 C         3.138871        -1.126850         0.381347
 C         3.282529        -1.069485        -1.157464
 C         2.587677         0.282366        -0.856421
 O         2.375460         1.213333        -1.866630
 O         1.675942        -1.319044         0.607635
 H        -0.753158        -0.392189         0.953890
 H        -0.675352         0.859665        -0.381370
 H        -0.534852        -0.633229        -1.032879
 H         1.820512         2.034371         0.974363
 H         1.752559         0.739344         2.173358
 H         4.238765         0.930860         0.849710
 H         3.641772        -1.834679         1.099668
 H         4.248111        -0.887884        -1.587100
 H         2.713342        -1.782520        -1.788250
 H         3.192085         1.782406        -1.909585
