19
Iteration:  3372
 C        -0.179155         0.039024        -0.022356
 C         1.273664        -0.062182         0.110871
 C         1.902224         0.937582         1.087537
 C         3.245157         0.403738         0.505851
 C         3.104671        -1.108440         0.408218
 C         3.176568        -1.093195        -1.199525
 C         2.516779         0.292771        -0.830563
 O         2.500734         1.293179        -1.863513
 O         1.783171        -1.271627         0.678348
 H        -0.483586         0.068352         1.045216
 H        -0.581889         0.922224        -0.425851
 H        -0.546583        -0.962631        -0.546826
 H         1.837870         2.124278         0.853562
 H         1.451656         0.766770         2.152469
 H         4.183437         0.899169         0.616752
 H         3.773721        -1.807285         0.857181
 H         4.198685        -1.043637        -1.642409
 H         2.586928        -1.824565        -1.814276
 H         3.086882         1.137977        -2.659072
