19
Iteration:   372charge 0 multiplicity 1
 C        -0.198535         0.075979        -0.288276
 C         1.324802         0.128721         0.162899
 C         2.099527         0.970908         1.233492
 C         3.355080         0.305273         0.445181
 C         3.053331        -1.225194         0.423608
 C         3.189588        -1.165811        -1.074964
 C         2.522565         0.269129        -0.858443
 O         2.462009         1.296245        -1.856205
 O         1.648394        -1.215415         0.669543
 H        -0.877316        -0.074595         0.542212
 H        -0.523878         0.930588        -0.850835
 H        -0.266674        -0.759556        -0.910064
 H         2.144507         2.040069         1.172854
 H         1.760333         0.809766         2.274095
 H         4.329488         0.561092         0.566236
 H         3.574223        -1.991568         1.043863
 H         4.269284        -0.869863        -1.435902
 H         2.668516        -1.996982        -1.679189
 H         1.531005         1.290034        -2.065724
