19
Iteration:  4687
 C        -0.214217        -0.003425        -0.034942
 C         1.297256         0.008253         0.193593
 C         2.050458         0.956956         1.172527
 C         3.274265         0.424666         0.412871
 C         3.127594        -1.091148         0.439931
 C         3.228932        -1.053002        -1.052980
 C         2.474596         0.267580        -0.929004
 O         2.494813         1.234716        -1.922565
 O         1.702628        -1.245959         0.591293
 H        -0.799978        -0.138564         0.857291
 H        -0.578441         0.866393        -0.544442
 H        -0.247469        -1.021116        -0.587197
 H         1.519186         1.967465         1.005522
 H         1.989995         0.716427         2.299240
 H         4.320390         0.729096         0.566559
 H         3.558572        -1.889326         0.966404
 H         4.188005        -0.698711        -1.422245
 H         2.832925        -1.948835        -1.568596
 H         1.725393         1.019820        -2.508214
