19
Iteration:  2196
 C        -0.101490        -0.010057        -0.280930
 C         1.338497        -0.014960         0.132603
 C         1.934117         0.944184         1.194420
 C         3.321147         0.491910         0.592353
 C         3.107897        -1.190761         0.454156
 C         3.182579        -1.008812        -1.119355
 C         2.545053         0.363176        -0.758106
 O         2.377492         1.296267        -1.901662
 O         1.646986        -1.342875         0.629370
 H        -0.705918        -0.102332         0.528878
 H        -0.217254         0.871396        -0.893567
 H        -0.270973        -1.051272        -0.828047
 H         1.861979         2.027528         1.122846
 H         1.802976         0.507723         2.212743
 H         4.334808         0.858635         0.579183
 H         3.774140        -1.926653         1.016303
 H         4.163497        -0.906366        -1.430748
 H         2.612699        -1.701384        -1.681087
 H         2.838598         0.814578        -2.655043
