19
Iteration:  4763charge 0 multiplicity 1
 C        -0.164870        -0.027991        -0.218600
 C         1.307412         0.071568         0.163696
 C         2.092156         1.002373         1.101214
 C         3.348195         0.450114         0.390397
 C         3.104598        -1.164756         0.366426
 C         3.222492        -1.100872        -1.093134
 C         2.511315         0.243950        -0.846840
 O         2.283634         1.241758        -1.738222
 O         1.718988        -1.242134         0.735645
 H        -0.849661        -0.298667         0.526376
 H        -0.361047         0.963200        -0.561301
 H        -0.272236        -0.818065        -1.008300
 H         2.056790         2.090811         0.819390
 H         1.932502         0.950403         2.213682
 H         4.431450         0.788238         0.447779
 H         3.685089        -1.650699         1.119904
 H         4.209417        -1.135158        -1.515258
 H         2.727825        -1.947967        -1.611724
 H         1.867200         0.910994        -2.546131
