19
Iteration:  3106charge 0 multiplicity 1
 C        -0.024755         0.081112        -0.203653
 C         1.335866        -0.048546         0.201651
 C         2.023040         0.957009         1.058657
 C         3.279815         0.499241         0.413970
 C         3.114922        -1.202353         0.462588
 C         3.160685        -1.134268        -1.122956
 C         2.459198         0.227270        -0.941005
 O         2.280086         1.292984        -1.852276
 O         1.701343        -1.308194         0.740241
 H        -0.841454        -0.339462         0.524112
 H        -0.209119         1.190975        -0.353655
 H        -0.120443        -0.486035        -1.040549
 H         1.980109         2.106669         1.062285
 H         1.960112         0.578184         2.215732
 H         4.318391         0.766583         0.591315
 H         3.660301        -1.848988         1.208034
 H         4.224602        -0.827884        -1.377814
 H         2.803230        -1.939676        -1.788443
 H         2.852280         2.019290        -1.491717
