19
Iteration:   481charge 0 multiplicity 1
 C        -0.193231         0.162858        -0.204305
 C         1.299214         0.045706         0.204112
 C         1.942854         0.993736         1.235515
 C         3.328921         0.300191         0.576665
 C         3.161768        -1.199050         0.352328
 C         3.119790        -1.160536        -1.188351
 C         2.510583         0.247133        -0.839036
 O         2.498884         1.303006        -1.900426
 O         1.734830        -1.218743         0.710837
 H        -0.862482         0.073700         0.638477
 H        -0.291052         1.068544        -0.745504
 H        -0.423398        -0.600121        -0.848126
 H         1.919820         2.027917         0.918243
 H         1.650701         0.641983         2.259107
 H         4.266045         0.721121         0.520111
 H         3.542576        -2.019689         1.014883
 H         4.113302        -1.290920        -1.864437
 H         2.270987        -1.817253        -1.607328
 H         2.568343         0.709423        -2.694740
