19
Iteration:  4485
 C        -0.085244        -0.014099        -0.286515
 C         1.331599         0.025887         0.275396
 C         2.094128         0.949087         1.199271
 C         3.286862         0.461628         0.432751
 C         3.178541        -1.170560         0.417441
 C         3.132617        -1.037504        -1.106862
 C         2.457380         0.261126        -0.799443
 O         2.345346         1.279470        -1.871169
 O         1.691707        -1.280400         0.679151
 H        -0.706241        -0.313770         0.577619
 H        -0.336710         0.953299        -0.806587
 H        -0.110825        -0.710382        -1.034046
 H         2.012160         1.909158         0.746679
 H         2.029677         0.917068         2.297531
 H         4.278735         0.885488         0.587255
 H         3.790747        -1.858297         1.025691
 H         4.097267        -1.144580        -1.606035
 H         2.533969        -1.666721        -1.747107
 H         1.594875         0.876577        -2.353511
