19
Iteration:  4128
 C        -0.027476         0.026890        -0.373922
 C         1.315906        -0.000096         0.197909
 C         2.141032         0.985293         1.192282
 C         3.333512         0.408322         0.463879
 C         3.093536        -1.198322         0.434313
 C         3.122383        -1.070623        -1.109976
 C         2.540197         0.316093        -0.877296
 O         2.085630         1.238753        -1.805650
 O         1.762394        -1.287554         0.788474
 H        -0.814818        -0.282650         0.267240
 H        -0.277734         0.983409        -0.845518
 H        -0.010784        -0.797505        -1.229098
 H         2.002716         2.026876         0.913761
 H         2.160204         1.028471         2.308670
 H         4.270199         0.821195         0.791663
 H         3.756203        -1.814034         0.981893
 H         4.163496        -0.963466        -1.533982
 H         2.706190        -1.786039        -1.820991
 H         2.760376         1.486893        -2.480467
