19
Iteration:  4840charge 0 multiplicity 1
 C        -0.174378         0.056641        -0.082274
 C         1.283319         0.011134         0.178539
 C         1.996948         0.984678         1.093200
 C         3.242864         0.394943         0.451739
 C         3.157654        -1.108639         0.410658
 C         3.263819        -1.097619        -1.084551
 C         2.548831         0.239895        -0.919173
 O         2.342405         1.214210        -1.930519
 O         1.745584        -1.287745         0.694512
 H        -0.593702        -0.124329         0.879120
 H        -0.521895         0.990740        -0.512329
 H        -0.493266        -0.721319        -0.805150
 H         1.949838         2.057904         0.775970
 H         1.836983         0.838638         2.209259
 H         4.308977         0.783655         0.376934
 H         3.808416        -1.757058         0.975763
 H         4.387826        -0.939760        -1.200688
 H         2.995433        -2.002067        -1.609417
 H         1.611988         1.808777        -1.703942
