19
Iteration:  1814charge 0 multiplicity 1
 C        -0.111220         0.139391        -0.413072
 C         1.272587        -0.072625         0.086150
 C         1.921427         1.015448         1.066589
 C         3.274830         0.427329         0.517317
 C         3.193076        -1.182517         0.493845
 C         3.340739        -1.142143        -1.077310
 C         2.606364         0.212201        -0.870205
 O         2.174348         1.323579        -1.601869
 O         1.711494        -1.323131         0.641465
 H        -0.774435         0.057255         0.410036
 H        -0.258982         1.017585        -0.908869
 H        -0.385758        -0.680103        -1.163267
 H         1.870304         2.019634         0.717293
 H         1.752209         0.861003         2.182684
 H         4.201626         0.962836         0.648490
 H         3.748287        -1.906452         1.125978
 H         4.472463        -1.096669        -1.360549
 H         2.817251        -2.058984        -1.548212
 H         2.926431         1.585043        -2.175483
