19
Iteration:  3928
 C        -0.098438         0.100272        -0.205249
 C         1.324536         0.066948         0.174699
 C         1.970547         0.947531         1.201763
 C         3.334573         0.431227         0.440424
 C         3.158633        -1.154765         0.378105
 C         3.251307        -1.117250        -1.139059
 C         2.509138         0.247947        -0.913190
 O         2.185710         1.192896        -1.844774
 O         1.729881        -1.285309         0.733096
 H        -0.686457         0.032431         0.781841
 H        -0.260223         1.178011        -0.450874
 H        -0.430575        -0.624078        -1.000503
 H         1.751510         2.026632         0.989138
 H         2.025417         0.630495         2.213150
 H         4.394001         0.730826         0.503271
 H         3.746409        -1.788990         1.063608
 H         4.280838        -0.898863        -1.367308
 H         2.705376        -1.931337        -1.543270
 H         2.936978         1.392627        -2.458573
