19
Iteration:  4524charge 0 multiplicity 1
 C        -0.205279         0.078282        -0.014736
 C         1.254267        -0.019876         0.105782
 C         1.965644         0.897108         1.068246
 C         3.223398         0.430673         0.404838
 C         3.170605        -1.169047         0.422392
 C         3.278454        -1.117639        -1.128080
 C         2.555199         0.267097        -0.914708
 O         2.468258         1.307035        -1.790163
 O         1.731784        -1.266486         0.659448
 H        -0.540712        -0.065020         1.042924
 H        -0.638673         1.028305        -0.265209
 H        -0.775590        -0.815985        -0.478261
 H         1.750244         1.966400         0.775673
 H         1.870320         0.785535         2.150037
 H         4.038170         1.156345         0.409289
 H         3.642463        -1.804659         1.116236
 H         4.293365        -0.846004        -1.486669
 H         2.838607        -1.986543        -1.730808
 H         1.948520         1.069546        -2.574946
