19
Iteration:   609
 C        -0.194052         0.191931        -0.180545
 C         1.288086         0.071328         0.105768
 C         2.049664         0.929212         1.095993
 C         3.276679         0.400997         0.456025
 C         3.063134        -1.202723         0.432782
 C         3.174935        -1.135652        -1.149478
 C         2.516496         0.201040        -0.853016
 O         2.420432         1.193143        -1.823063
 O         1.731680        -1.273292         0.700435
 H        -0.711749        -0.259710         0.690896
 H        -0.509042         1.299172        -0.343406
 H        -0.489842        -0.420549        -1.082509
 H         1.997882         1.973965         0.972826
 H         1.835080         0.744178         2.151606
 H         4.304905         0.770389         0.697207
 H         3.712821        -1.827168         1.098713
 H         4.133134        -0.938553        -1.486049
 H         2.654757        -1.909085        -1.631245
 H         3.062082         1.904222        -1.806713
