19
Iteration:   132
 C        -0.102603         0.152460        -0.257124
 C         1.305916        -0.056271         0.312226
 C         1.953266         0.963470         1.258253
 C         3.224626         0.407972         0.445609
 C         3.105120        -1.117674         0.432509
 C         3.133982        -1.109544        -1.177199
 C         2.499731         0.214917        -0.882033
 O         2.629728         1.248297        -1.911625
 O         1.626073        -1.282628         0.694578
 H        -0.805895         0.045679         0.674999
 H        -0.128631         1.158635        -0.833671
 H        -0.269092        -0.718451        -0.916414
 H         1.763622         1.998379         0.973964
 H         2.065225         0.814156         2.363128
 H         4.194428         0.783781         0.535999
 H         3.704147        -1.842531         1.080224
 H         3.997133        -0.855635        -1.599190
 H         2.582344        -1.752676        -1.730340
 H         1.895107         0.987839        -2.466287
