19
Iteration:  3324charge 0 multiplicity 1
 C        -0.044945         0.058997        -0.293054
 C         1.385603         0.024956         0.120238
 C         2.079643         0.936038         1.192853
 C         3.322148         0.392363         0.493285
 C         3.138125        -1.194605         0.422140
 C         3.209330        -1.083166        -1.174779
 C         2.471730         0.229043        -0.935085
 O         2.161769         1.204399        -1.805951
 O         1.686024        -1.208770         0.773608
 H        -0.805768         0.135662         0.646009
 H        -0.263179         1.096233        -0.781191
 H        -0.242935        -0.693574        -0.974123
 H         1.939617         1.939645         0.959741
 H         1.848187         0.807394         2.233943
 H         4.403556         0.678581         0.685288
 H         3.636739        -2.014132         1.006446
 H         4.239166        -0.888960        -1.452142
 H         2.920864        -1.901898        -1.841998
 H         2.536509         2.077397        -1.677470
