19
Iteration:  2847charge 0 multiplicity 1
 C        -0.137505        -0.019941        -0.241037
 C         1.353923         0.096281         0.155819
 C         1.967492         0.882902         1.265976
 C         3.327272         0.375703         0.594202
 C         3.133036        -1.143880         0.407426
 C         3.160622        -1.056424        -1.176842
 C         2.595801         0.334484        -0.877727
 O         2.340936         1.226023        -1.976898
 O         1.739458        -1.248361         0.701460
 H        -0.694344        -0.108253         0.566094
 H        -0.526192         0.871029        -0.744578
 H        -0.177998        -0.985495        -0.790709
 H         1.758392         1.976883         1.016099
 H         1.771513         0.574040         2.279776
 H         4.364566         0.820309         0.827688
 H         3.557156        -2.033456         0.946140
 H         4.224169        -1.023128        -1.518558
 H         2.508447        -1.662021        -1.793784
 H         1.653309         1.834498        -1.726207
