19
Iteration:  1064
 C        -0.064511         0.037930        -0.310193
 C         1.268342        -0.051280         0.134661
 C         1.913037         0.954580         1.174544
 C         3.167927         0.520934         0.440669
 C         3.058587        -1.129631         0.424546
 C         3.305913        -1.179039        -1.103815
 C         2.564522         0.238389        -0.888504
 O         2.453120         1.306421        -1.772687
 O         1.694937        -1.333159         0.682959
 H        -0.647189         0.185193         0.615716
 H        -0.147893         1.000386        -0.920588
 H        -0.464332        -0.879722        -0.763864
 H         1.693651         2.020928         0.980098
 H         1.779263         0.625476         2.154474
 H         4.279543         0.953155         0.493777
 H         3.618149        -1.739180         1.116181
 H         4.430269        -1.138943        -1.397138
 H         2.715610        -1.953008        -1.705375
 H         2.334081         2.180393        -1.409728
