19
Iteration:  3703charge 0 multiplicity 1
 C        -0.278890        -0.018741        -0.000878
 C         1.256540        -0.030055         0.190900
 C         2.005946         0.968805         1.098699
 C         3.221225         0.508763         0.371040
 C         3.140275        -1.145410         0.338841
 C         3.173984        -1.115560        -1.084084
 C         2.551053         0.299377        -0.881847
 O         2.589839         1.274592        -1.874335
 O         1.702559        -1.308030         0.704874
 H        -0.592164        -0.287088         0.982298
 H        -0.591220         1.008872        -0.345409
 H        -0.559402        -0.953375        -0.631767
 H         1.804873         2.072751         0.879823
 H         1.974580         0.906964         2.285055
 H         4.196733         1.017449         0.289970
 H         3.832668        -1.726479         0.936075
 H         4.139887        -0.763311        -1.509245
 H         2.828359        -1.916932        -1.786527
 H         1.977824         1.104938        -2.586748
