19
Iteration:  2327
 C        -0.046696         0.028209        -0.456660
 C         1.341655         0.029139         0.184512
 C         2.035889         0.907128         1.217032
 C         3.238429         0.448638         0.550899
 C         3.113250        -1.147354         0.460710
 C         3.172614        -1.121435        -1.073842
 C         2.549970         0.331297        -0.852477
 O         2.277921         1.335109        -1.792999
 O         1.756911        -1.331920         0.681179
 H        -0.823198        -0.023246         0.212790
 H        -0.203167         0.942805        -0.988678
 H        -0.042294        -0.832639        -1.243902
 H         1.815742         2.022087         1.135259
 H         1.849625         0.615094         2.280223
 H         4.242725         0.879548         0.662047
 H         3.821370        -1.804535         0.951513
 H         4.170305        -1.007812        -1.413793
 H         2.742922        -1.979940        -1.615437
 H         1.534938         0.970427        -2.351687
