19
Iteration:    82
 C        -0.133865         0.068289        -0.155599
 C         1.356979         0.018502         0.142646
 C         2.045304         1.010315         1.066905
 C         3.339445         0.375564         0.546774
 C         2.989546        -1.155532         0.464940
 C         3.258508        -1.191263        -1.098589
 C         2.594160         0.276643        -0.943384
 O         2.429731         1.253144        -1.857795
 O         1.554377        -1.246672         0.627614
 H        -0.696776        -0.214799         0.694871
 H        -0.244508         1.048194        -0.515583
 H        -0.390059        -0.585664        -0.969533
 H         1.986770         2.068791         0.758401
 H         1.734570         0.807551         2.103965
 H         4.412014         0.684481         0.756687
 H         3.495885        -1.864303         1.162420
 H         4.451962        -1.123262        -1.314241
 H         2.788239        -2.145337        -1.654993
 H         1.840182         1.925143        -1.437676
