19
Iteration:  3924
 C        -0.140513         0.104058        -0.173067
 C         1.293362         0.040183         0.152571
 C         1.971438         0.921925         1.199792
 C         3.320901         0.466185         0.452575
 C         3.177558        -1.178826         0.385544
 C         3.249596        -1.104902        -1.198701
 C         2.519355         0.224376        -0.927579
 O         2.226824         1.210733        -1.852082
 O         1.725133        -1.256477         0.775903
 H        -0.595299        -0.041334         0.818246
 H        -0.219907         1.091389        -0.578779
 H        -0.365575        -0.516629        -0.959552
 H         1.728590         2.005576         1.074310
 H         2.010323         0.673265         2.334417
 H         4.306726         0.946311         0.467749
 H         3.686960        -1.877013         1.081060
 H         4.333353        -0.936185        -1.408464
 H         2.706570        -2.013963        -1.667473
 H         2.992546         1.258363        -2.442139
