19
Iteration:  4734
 C        -0.155255        -0.029435        -0.045893
 C         1.295141        -0.065180         0.152023
 C         1.941714         0.959651         1.010330
 C         3.280334         0.476070         0.439171
 C         3.149318        -1.103809         0.340605
 C         3.128119        -1.106037        -1.106921
 C         2.496641         0.288109        -0.879168
 O         2.492822         1.317023        -1.819162
 O         1.740567        -1.318166         0.735243
 H        -0.732022        -0.107772         0.969965
 H        -0.260415         1.111143        -0.292534
 H        -0.572985        -0.742589        -0.719370
 H         2.068355         1.959116         0.545540
 H         1.719492         1.146132         2.097606
 H         4.233268         1.074900         0.563167
 H         3.801074        -1.735777         1.009057
 H         4.243112        -1.205793        -1.396890
 H         2.529855        -1.900675        -1.534036
 H         2.134047         0.922194        -2.626815
