19
Iteration:   986
 C        -0.248988         0.080995        -0.330319
 C         1.239387         0.013142         0.104402
 C         1.983008         0.940442         1.299653
 C         3.266739         0.405180         0.546822
 C         3.137974        -1.111332         0.458218
 C         3.273451        -1.115512        -1.019960
 C         2.594767         0.286747        -0.895731
 O         2.464486         1.225864        -1.898279
 O         1.725675        -1.329880         0.595522
 H        -0.933881        -0.440390         0.375992
 H        -0.665186         1.069341        -0.327662
 H        -0.336548        -0.286136        -1.385071
 H         1.833659         2.032553         1.193473
 H         1.796599         0.750890         2.303795
 H         4.323994         0.975839         0.525949
 H         3.695878        -1.784071         1.086176
 H         4.370553        -0.943920        -1.280330
 H         2.786001        -1.961380        -1.604882
 H         1.664258         1.784314        -1.812082
