19
Iteration:  1190
 C        -0.069088        -0.006902        -0.425064
 C         1.318983        -0.003323         0.121576
 C         2.031229         1.023845         1.176999
 C         3.319772         0.415441         0.572716
 C         3.075360        -1.164356         0.527201
 C         3.269975        -1.002576        -1.078225
 C         2.559053         0.272943        -0.856956
 O         2.241443         1.276534        -1.823003
 O         1.617844        -1.368753         0.679218
 H        -0.670219        -0.574076         0.385794
 H        -0.398844         1.060142        -0.649047
 H        -0.093887        -0.553933        -1.439779
 H         1.881774         2.075544         0.894164
 H         1.868253         0.868516         2.257187
 H         4.293960         0.841106         0.733612
 H         3.595599        -1.871139         1.163776
 H         4.294117        -0.925896        -1.233176
 H         2.903457        -1.814947        -1.672167
 H         3.027574         1.482513        -2.400870
