19
Iteration:  4795
 C        -0.030294         0.050770        -0.276641
 C         1.319461         0.045985         0.192576
 C         2.039719         0.969071         1.251378
 C         3.346810         0.434011         0.414314
 C         3.118765        -1.152140         0.408530
 C         3.199178        -1.129796        -1.104012
 C         2.451414         0.307678        -0.879679
 O         2.250471         1.230039        -1.930796
 O         1.773139        -1.313117         0.795224
 H        -0.785471        -0.063953         0.429698
 H        -0.111577         0.985632        -0.775084
 H        -0.089757        -0.607297        -1.202839
 H         1.959867         2.052776         1.048714
 H         1.810523         0.681232         2.287941
 H         4.373169         0.830726         0.658409
 H         3.756836        -1.567634         1.170169
 H         4.152164        -1.063515        -1.623319
 H         2.432390        -1.866303        -1.518520
 H         1.312977         1.174204        -2.187296
