19
Iteration:  1485
 C        -0.142601         0.075020        -0.381551
 C         1.340863        -0.052056         0.166137
 C         1.978520         1.073205         1.123580
 C         3.247634         0.415081         0.583014
 C         3.154332        -1.193221         0.513526
 C         3.347819        -1.059306        -1.115903
 C         2.593179         0.238812        -0.848717
 O         2.222035         1.286390        -1.726304
 O         1.633417        -1.367296         0.609711
 H        -0.757654        -0.138128         0.418842
 H        -0.339424         1.027438        -0.777547
 H        -0.137334        -0.774350        -1.181699
 H         1.945377         2.005648         0.485144
 H         1.607488         1.190666         2.121249
 H         4.345883         0.763287         0.647551
 H         3.605308        -1.953627         1.177773
 H         4.421562        -0.790428        -1.285372
 H         2.965882        -1.955356        -1.687682
 H         2.933222         1.480392        -2.332289
