19
Iteration:  4172charge 0 multiplicity 1
 C        -0.224193         0.001623        -0.178256
 C         1.339246        -0.014860         0.182681
 C         2.016965         0.953754         1.075916
 C         3.295166         0.487601         0.497429
 C         3.166699        -1.164350         0.455776
 C         3.167911        -1.123298        -1.159219
 C         2.548534         0.252751        -0.915663
 O         2.293901         1.376478        -1.848855
 O         1.775357        -1.314553         0.750629
 H        -0.768099        -0.056758         0.752593
 H        -0.528154         0.910145        -0.609039
 H        -0.550698        -0.955721        -0.734937
 H         1.751922         1.963092         0.836152
 H         1.778551         0.756846         2.145600
 H         4.297280         0.838032         0.563190
 H         3.816668        -1.779991         1.073392
 H         4.169401        -1.173554        -1.634928
 H         2.604804        -1.836865        -1.775473
 H         3.120257         1.166114        -2.351901
