19
Iteration:  1469
 C        -0.142547         0.009056        -0.282190
 C         1.284671         0.058913         0.113571
 C         1.947780         1.023735         1.108122
 C         3.261440         0.359575         0.625223
 C         3.060116        -1.223543         0.398205
 C         3.409646        -1.056174        -1.031657
 C         2.578539         0.315229        -0.813157
 O         2.270343         1.272708        -1.860514
 O         1.691735        -1.347224         0.629582
 H        -0.874856        -0.050741         0.642127
 H        -0.415927         0.984095        -0.941512
 H        -0.430087        -0.820207        -0.860310
 H         1.836042         2.023736         0.745075
 H         1.748648         1.031554         2.229726
 H         4.197219         0.736975         0.896251
 H         3.677967        -1.924559         0.990229
 H         4.467715        -0.890136        -1.174503
 H         3.030748        -1.701092        -1.773129
 H         3.091447         1.492527        -2.282855
