19
Iteration:  3805charge 0 multiplicity 1
 C        -0.053116         0.173878        -0.309785
 C         1.377830        -0.035804         0.177695
 C         2.022325         0.966604         1.168434
 C         3.388923         0.518702         0.447378
 C         3.285047        -1.161949         0.499186
 C         3.115755        -1.161808        -1.167255
 C         2.506997         0.252269        -0.826972
 O         2.076495         1.109586        -1.827016
 O         1.728759        -1.289459         0.667411
 H        -0.801560         0.095998         0.625763
 H        -0.093811         1.178006        -0.741958
 H        -0.353841        -0.332614        -1.135319
 H         1.775979         2.021293         1.096007
 H         1.968753         0.639502         2.251980
 H         4.210945         1.140653         0.800223
 H         3.926534        -1.841746         1.104443
 H         4.014861        -0.954954        -1.628793
 H         2.464517        -1.947216        -1.539360
 H         2.796990         1.779841        -1.951726
