19
Iteration:  2674charge 0 multiplicity 1
 C        -0.051021         0.007897        -0.372215
 C         1.360542        -0.011695         0.174146
 C         2.075419         0.999461         1.141632
 C         3.314685         0.436587         0.476639
 C         3.068612        -1.180810         0.429123
 C         3.223471        -1.047867        -1.063233
 C         2.542973         0.288139        -0.857395
 O         2.232747         1.255894        -1.777040
 O         1.668338        -1.349407         0.649244
 H        -0.648492        -0.055478         0.629540
 H        -0.297432         0.897436        -0.882015
 H        -0.142863        -0.887439        -1.063536
 H         1.699415         2.007102         0.808705
 H         1.934496         1.008606         2.202915
 H         4.380140         0.733622         0.649214
 H         3.792869        -1.814121         0.863781
 H         4.299486        -0.917056        -1.198094
 H         2.841883        -1.726360        -1.815163
 H         1.828489         1.878750        -1.104214
