19
Iteration:   884
 C        -0.087313         0.124746        -0.345754
 C         1.278288        -0.065909         0.263336
 C         1.942744         0.884993         1.192479
 C         3.239402         0.460681         0.468830
 C         3.117789        -1.142387         0.430403
 C         3.235302        -1.075130        -1.112276
 C         2.577666         0.229098        -0.911340
 O         2.456853         1.375061        -1.801454
 O         1.651851        -1.363307         0.718531
 H        -0.858303         0.222116         0.396417
 H        -0.073656         0.903386        -1.073243
 H        -0.353054        -0.810282        -0.783800
 H         1.687040         1.864315         0.832128
 H         1.728585         0.804171         2.277919
 H         4.129132         1.025835         0.642226
 H         3.806223        -1.753698         1.067641
 H         4.346559        -1.049424        -1.285122
 H         2.704816        -1.945177        -1.734513
 H         2.025327         1.093950        -2.639795
