19
Iteration:  4116charge 0 multiplicity 1
 C        -0.085105         0.051345        -0.379507
 C         1.370160        -0.038527         0.255512
 C         2.050040         0.964148         1.183827
 C         3.339837         0.433143         0.529976
 C         3.143952        -1.116804         0.365442
 C         3.149776        -1.070302        -1.151832
 C         2.573435         0.278513        -0.919659
 O         2.088755         1.221201        -1.849771
 O         1.762457        -1.293554         0.838818
 H        -0.792524        -0.124286         0.352515
 H        -0.140315         1.151518        -0.591226
 H        -0.252453        -0.576908        -1.355463
 H         2.097024         2.015974         0.855161
 H         1.767809         0.661973         2.248144
 H         4.398084         0.727410         0.464009
 H         3.703620        -1.896672         0.777117
 H         4.287057        -1.105468        -1.331211
 H         2.479674        -1.866878        -1.441410
 H         2.843315         1.685678        -2.205733
