19
Iteration:  3233charge 0 multiplicity 1
 C        -0.210704         0.004427         0.111432
 C         1.289236         0.006621         0.165279
 C         1.984166         1.025558         1.042728
 C         3.319058         0.384315         0.535211
 C         3.057846        -1.188164         0.423740
 C         3.213061        -1.050336        -1.158282
 C         2.630843         0.351714        -0.895472
 O         2.530969         1.229008        -1.926848
 O         1.636554        -1.344570         0.585058
 H        -0.602540        -0.305486         1.039174
 H        -0.598860         0.992475        -0.125545
 H        -0.588826        -0.670572        -0.795965
 H         1.878262         1.918827         0.463083
 H         1.632486         1.207361         1.985525
 H         4.283083         0.829123         0.705624
 H         3.784081        -1.876960         0.937003
 H         4.273962        -1.139618        -1.457887
 H         2.684437        -1.707207        -1.838194
 H         1.705682         1.721588        -1.951324
