19
Iteration:  4057charge 0 multiplicity 1
 C        -0.245396         0.003253        -0.000968
 C         1.252001         0.051324         0.189379
 C         2.026700         0.939918         1.086697
 C         3.242038         0.434259         0.470466
 C         3.109315        -1.157155         0.433358
 C         3.305197        -1.063434        -1.141503
 C         2.598583         0.227642        -0.923909
 O         2.354486         1.289311        -1.956838
 O         1.720267        -1.307049         0.692808
 H        -0.684431        -0.122992         1.044365
 H        -0.731406         0.885595        -0.396079
 H        -0.642371        -0.744734        -0.536792
 H         1.905494         2.033125         0.789064
 H         1.720757         0.900539         2.129163
 H         4.213348         0.870814         0.760298
 H         3.590160        -1.985503         1.057737
 H         4.362552        -0.858476        -1.396343
 H         3.023021        -1.893177        -1.850199
 H         3.108439         1.503218        -2.549962
