19
Iteration:  3188charge 0 multiplicity 1
 C        -0.286070         0.115570        -0.067443
 C         1.233439         0.003790         0.210253
 C         2.014021         0.843033         1.161027
 C         3.271416         0.426158         0.438514
 C         3.137128        -1.159756         0.392471
 C         3.221046        -1.098288        -1.111991
 C         2.547498         0.253723        -0.989750
 O         2.531187         1.282888        -1.964817
 O         1.739152        -1.251113         0.743757
 H        -0.679514        -0.010291         0.884102
 H        -0.668980         0.976135        -0.557307
 H        -0.605821        -0.842947        -0.762103
 H         1.851565         1.903964         1.111129
 H         1.943129         0.515242         2.133684
 H         4.336077         0.694698         0.477752
 H         3.695754        -1.784299         1.094146
 H         4.199773        -0.909489        -1.574303
 H         2.763675        -1.915545        -1.727130
 H         1.712235         1.789609        -1.752282
