19
Iteration:   293
 C        -0.163313         0.243937        -0.162299
 C         1.312178         0.035340         0.101303
 C         1.988036         0.994208         1.059912
 C         3.222532         0.344225         0.370747
 C         3.115555        -1.233487         0.463180
 C         3.205105        -1.144916        -1.125176
 C         2.511146         0.150730        -0.888408
 O         2.508327         1.277928        -1.675755
 O         1.694696        -1.249540         0.698317
 H        -0.765720         0.031371         0.665800
 H        -0.325296         1.290880        -0.432293
 H        -0.576340        -0.340355        -0.934974
 H         1.772681         2.059394         0.872877
 H         1.877884         0.511434         2.030312
 H         4.144972         0.991312         0.356349
 H         3.697588        -2.032949         0.954204
 H         4.388603        -1.081386        -1.293092
 H         2.710069        -2.004181        -1.744884
 H         2.063249         0.976097        -2.465807
