19
Iteration:   352
 C        -0.125019         0.028174        -0.297601
 C         1.342934         0.108211         0.129897
 C         2.184858         0.931956         1.215435
 C         3.337089         0.358151         0.591275
 C         3.047735        -1.165138         0.410496
 C         3.160965        -1.037454        -1.250063
 C         2.522832         0.251007        -0.849512
 O         2.465748         1.174995        -1.808813
 O         1.524168        -1.180990         0.709909
 H        -0.673488         0.111510         0.738441
 H        -0.438178         0.898788        -0.865369
 H        -0.272803        -0.926222        -0.883157
 H         2.086790         2.009559         1.232558
 H         1.979180         0.758877         2.309101
 H         4.255540         0.756217         0.587248
 H         3.441182        -2.029329         0.972803
 H         4.264592        -0.922207        -1.398304
 H         2.692714        -1.790917        -1.910667
 H         1.696561         1.069819        -2.403121
