19
Iteration:  1736charge 0 multiplicity 1
 C        -0.223673        -0.065915        -0.204046
 C         1.294626         0.057987         0.039885
 C         1.937139         0.930575         1.188936
 C         3.221821         0.427868         0.596873
 C         3.104500        -1.137479         0.444568
 C         3.345643        -1.070311        -1.018513
 C         2.555233         0.284912        -0.878328
 O         2.409637         1.297340        -1.861474
 O         1.663599        -1.268529         0.560110
 H        -0.540212        -0.338033         0.737910
 H        -0.548503         0.845376        -0.504705
 H        -0.322390        -0.853225        -1.101919
 H         1.768303         2.017683         1.009995
 H         1.642133         0.729471         2.258790
 H         4.272089         0.844386         0.717464
 H         3.681895        -1.847853         1.012126
 H         4.431214        -0.941824        -1.412353
 H         2.808898        -1.950424        -1.505847
 H         3.329540         1.441305        -2.233198
