19
Iteration:   593charge 0 multiplicity 1
 C        -0.233044         0.206131        -0.240742
 C         1.257333         0.022974         0.176270
 C         2.036414         0.898853         1.261803
 C         3.336415         0.370836         0.452419
 C         3.226209        -1.149676         0.423215
 C         3.128470        -1.182418        -1.075055
 C         2.448852         0.255514        -0.897497
 O         2.491434         1.215256        -1.963724
 O         1.689821        -1.284652         0.714817
 H        -0.968983         0.053922         0.531959
 H        -0.388326         1.214732        -0.408334
 H        -0.508919        -0.308723        -1.132282
 H         1.863033         2.010800         1.041252
 H         1.938852         0.545600         2.297687
 H         4.287426         0.887602         0.317189
 H         3.695873        -1.875248         1.053343
 H         4.146833        -0.919506        -1.641904
 H         2.587265        -2.035865        -1.687141
 H         2.568052         1.997070        -1.404386
