19
Iteration:   111charge 0 multiplicity 1
 C        -0.225391         0.171264        -0.231614
 C         1.298399         0.073988         0.119916
 C         1.969577         0.925643         1.122682
 C         3.252439         0.424626         0.524402
 C         3.122760        -1.196732         0.405564
 C         3.139023        -1.144661        -1.096795
 C         2.468439         0.296884        -0.879643
 O         2.608426         1.188294        -1.849807
 O         1.769771        -1.330702         0.722310
 H        -0.861338         0.121603         0.746697
 H        -0.362307         1.204044        -0.665844
 H        -0.538027        -0.566494        -0.962544
 H         1.994075         1.985166         0.945902
 H         1.665909         0.734778         2.180139
 H         4.112741         0.999091         0.467843
 H         3.763981        -1.941958         1.010442
 H         4.052701        -1.039538        -1.544956
 H         2.619815        -1.959587        -1.484600
 H         1.737540         1.657464        -2.033483
