19
Iteration:  3864
 C        -0.180190        -0.071317         0.001817
 C         1.260460         0.073576         0.086229
 C         2.017362         1.039503         1.103659
 C         3.313750         0.396108         0.421979
 C         3.064777        -1.135956         0.433229
 C         3.152486        -1.094314        -1.147333
 C         2.591338         0.267368        -0.918406
 O         2.387286         1.251573        -1.810744
 O         1.737466        -1.229711         0.651198
 H        -0.724156        -0.250050         0.935566
 H        -0.678245         0.877039        -0.350134
 H        -0.460776        -1.076206        -0.575850
 H         1.848133         2.117549         0.952467
 H         1.862146         0.791581         2.113372
 H         4.349852         0.696513         0.645990
 H         3.724351        -1.774147         1.036204
 H         4.212740        -1.135125        -1.467338
 H         2.772627        -1.922905        -1.739154
 H         2.980962         1.168951        -2.581360
