19
Iteration:  3967charge 0 multiplicity 1
 C        -0.062456         0.102784        -0.335182
 C         1.364612         0.011100         0.237499
 C         2.079985         1.066092         1.146595
 C         3.367396         0.398986         0.493628
 C         3.146976        -1.171535         0.373267
 C         3.223646        -1.113944        -1.112560
 C         2.552514         0.260922        -0.826798
 O         2.047117         1.143590        -1.778012
 O         1.717786        -1.274466         0.705736
 H        -0.726261        -0.159595         0.491729
 H        -0.252954         1.085900        -0.737567
 H        -0.360767        -0.536027        -1.202304
 H         1.876280         2.086236         0.877702
 H         1.745922         1.020496         2.231649
 H         4.420089         0.624243         0.647746
 H         3.814686        -1.904107         0.849774
 H         4.204660        -0.947402        -1.641609
 H         2.720358        -1.947522        -1.711622
 H         2.763340         1.648852        -2.164699
