19
Iteration:  1581
 C        -0.244230         0.003661        -0.187067
 C         1.290658        -0.048405         0.064132
 C         1.903296         0.966806         1.131481
 C         3.219871         0.381892         0.546073
 C         3.124488        -1.098792         0.465008
 C         3.392261        -1.157669        -1.030951
 C         2.585906         0.280180        -0.983295
 O         2.368720         1.349586        -1.777318
 O         1.700969        -1.285525         0.582572
 H        -0.693428        -0.095935         0.737034
 H        -0.458013         1.069543        -0.654930
 H        -0.453723        -0.911789        -0.872158
 H         1.654792         2.013244         0.733331
 H         1.667200         0.822248         2.196871
 H         4.189627         0.745275         0.961011
 H         3.699597        -1.888931         0.996319
 H         4.383482        -0.950458        -1.172800
 H         2.997326        -2.018452        -1.555311
 H         3.151958         1.793765        -2.129302
