19
Iteration:  3708charge 0 multiplicity 1
 C        -0.237519        -0.042437        -0.002735
 C         1.247790        -0.033948         0.173250
 C         1.988041         0.939983         1.115755
 C         3.198418         0.528980         0.337016
 C         3.136862        -1.158985         0.353734
 C         3.147910        -1.123499        -1.103229
 C         2.554850         0.316079        -0.915002
 O         2.595127         1.316889        -1.868861
 O         1.738249        -1.282278         0.725196
 H        -0.557549        -0.228410         1.144285
 H        -0.591345         0.941380        -0.338127
 H        -0.670307        -0.783521        -0.605304
 H         1.777516         1.943799         0.870455
 H         1.852075         0.849915         2.133092
 H         4.235156         0.920567         0.313736
 H         3.710304        -1.864474         0.989210
 H         4.241341        -0.953806        -1.230774
 H         2.726540        -1.937917        -1.661377
 H         2.040483         0.984736        -2.630752
