19
Iteration:  3303charge 0 multiplicity 1
 C        -0.022065         0.124723        -0.387783
 C         1.362571         0.040458         0.218100
 C         2.049356         0.964386         1.179282
 C         3.369595         0.379444         0.600524
 C         3.126155        -1.212360         0.359759
 C         3.104145        -1.063657        -1.137771
 C         2.575134         0.303869        -0.783348
 O         2.115198         1.167653        -1.942208
 O         1.785717        -1.342371         0.771286
 H        -0.884287         0.018699         0.459141
 H        -0.242893         1.199143        -0.790012
 H        -0.138237        -0.494695        -1.193054
 H         1.947659         2.012189         0.891929
 H         1.843729         0.948984         2.268192
 H         4.429615         0.774427         0.596852
 H         3.678279        -1.838785         1.029729
 H         4.078930        -1.110218        -1.592539
 H         2.451364        -1.702765        -1.761966
 H         2.166564         2.069049        -1.563311
