19
Iteration:   367charge 0 multiplicity 1
 C        -0.180566         0.070823        -0.287556
 C         1.294467         0.121646         0.136267
 C         2.115132         0.977873         1.252869
 C         3.341421         0.274033         0.468158
 C         3.088930        -1.234760         0.427370
 C         3.203848        -1.124676        -1.101481
 C         2.526078         0.242332        -0.864363
 O         2.459780         1.271360        -1.848490
 O         1.603574        -1.163923         0.676325
 H        -0.886035        -0.143102         0.554062
 H        -0.560733         0.930180        -0.907681
 H        -0.326238        -0.919528        -0.889706
 H         2.302341         2.091515         1.148902
 H         1.893855         0.620909         2.279576
 H         4.469313         0.668288         0.628345
 H         3.602098        -1.939905         1.058326
 H         4.150944        -0.847532        -1.436112
 H         2.697604        -1.803338        -1.738584
 H         1.501345         1.237318        -2.123914
