19
Iteration:  1523
 C        -0.077851         0.036022        -0.468961
 C         1.278353         0.014786         0.147609
 C         1.889183         0.927889         1.292139
 C         3.281414         0.445659         0.540292
 C         3.223171        -1.117337         0.502186
 C         3.210209        -1.170726        -1.103687
 C         2.545480         0.256249        -0.908585
 O         2.323846         1.325270        -1.859865
 O         1.722400        -1.324335         0.758356
 H        -0.954460        -0.331543         0.189803
 H        -0.460941         1.086626        -0.786693
 H        -0.172801        -0.458133        -1.339338
 H         1.659749         1.960273         1.130788
 H         1.654602         0.646365         2.361676
 H         4.122728         1.049072         0.657584
 H         3.849443        -1.845402         1.017725
 H         4.222241        -1.252876        -1.674039
 H         2.527889        -1.844139        -1.648132
 H         3.136518         1.797309        -2.096996
