19
Iteration:  3889charge 0 multiplicity 1
 C        -0.181560        -0.009094        -0.003426
 C         1.257798        -0.026241         0.158435
 C         2.023587         1.019514         1.148388
 C         3.290615         0.465497         0.476314
 C         3.189255        -1.134385         0.412241
 C         3.122437        -1.087615        -1.138317
 C         2.489333         0.312640        -0.875769
 O         2.470534         1.297283        -1.909970
 O         1.685110        -1.332493         0.641169
 H        -0.750207        -0.206381         0.846014
 H        -0.633834         0.901909        -0.489106
 H        -0.386141        -1.006496        -0.563141
 H         1.777751         1.976615         0.669700
 H         1.826410         1.214356         2.288375
 H         4.247933         1.045385         0.471436
 H         3.768002        -1.892381         0.924092
 H         4.055648        -1.224951        -1.788605
 H         2.730248        -2.130688        -1.452205
 H         3.101283         0.943045        -2.546331
