19
Iteration:  2364
 C        -0.157022         0.054123        -0.222812
 C         1.260678        -0.059562         0.129664
 C         1.898371         0.998617         1.079130
 C         3.183515         0.489965         0.478047
 C         3.125132        -1.166223         0.375353
 C         3.285689        -1.094288        -1.133035
 C         2.486075         0.198315        -0.846688
 O         2.491034         1.365958        -1.695435
 O         1.805426        -1.389649         0.683643
 H        -0.915770         0.062414         0.659600
 H        -0.278250         1.101150        -0.787812
 H        -0.411367        -0.728104        -0.934197
 H         1.750948         2.028501         0.702988
 H         1.548797         0.920854         2.123502
 H         4.148204         1.056922         0.632892
 H         3.760076        -1.768395         1.077949
 H         4.376859        -0.922416        -1.351266
 H         2.910200        -2.016231        -1.562406
 H         1.911330         1.125281        -2.488830
