19
Iteration:  2337
 C        -0.064224         0.064518        -0.451572
 C         1.304778        -0.076860         0.101720
 C         1.984912         0.908606         1.184735
 C         3.321763         0.464179         0.545189
 C         3.196313        -1.097689         0.429341
 C         3.179006        -1.053202        -1.117797
 C         2.491757         0.269252        -0.839561
 O         2.328398         1.315890        -1.731234
 O         1.724146        -1.333015         0.737979
 H        -0.860378        -0.010929         0.294566
 H        -0.098446         0.994456        -0.893557
 H        -0.385895        -0.750069        -1.160904
 H         1.923454         1.999191         0.939629
 H         1.689762         0.584839         2.205347
 H         4.299192         0.898712         0.766735
 H         3.813410        -1.723109         1.084495
 H         4.155481        -0.995166        -1.585716
 H         2.573459        -1.948515        -1.405515
 H         1.608198         1.016917        -2.376304
