19
Iteration:  4218charge 0 multiplicity 1
 C        -0.310436        -0.004405         0.025259
 C         1.287785         0.092564         0.110187
 C         1.989337         0.987607         1.204616
 C         3.290086         0.460714         0.464037
 C         3.255215        -1.072429         0.412784
 C         3.309532        -1.083008        -1.109642
 C         2.477753         0.235671        -0.888689
 O         2.411609         1.149259        -1.932615
 O         1.677243        -1.336006         0.543100
 H        -0.811141        -0.102445         1.062171
 H        -0.532460         0.986813        -0.338308
 H        -0.504108        -0.905066        -0.642220
 H         1.777537         2.029717         0.979411
 H         1.825317         0.776078         2.237875
 H         4.259441         0.973886         0.378028
 H         3.568866        -1.928857         1.118095
 H         4.175172        -0.727835        -1.612784
 H         2.947096        -2.026727        -1.633371
 H         2.806944         2.039878        -1.757362
