19
Iteration:  2198
 C        -0.103936        -0.028824        -0.256723
 C         1.333848         0.005144         0.130938
 C         1.925593         0.946476         1.193680
 C         3.319551         0.476412         0.601561
 C         3.084439        -1.189556         0.458884
 C         3.196636        -1.000721        -1.122383
 C         2.560860         0.356569        -0.773105
 O         2.385497         1.295328        -1.906686
 O         1.650343        -1.345064         0.624770
 H        -0.718379        -0.147128         0.574066
 H        -0.197546         0.943021        -0.920019
 H        -0.244640        -1.077176        -0.802368
 H         1.812840         2.048579         1.144392
 H         1.807989         0.588737         2.190874
 H         4.375150         0.833616         0.543815
 H         3.719769        -1.890622         0.967306
 H         4.199403        -0.875064        -1.435197
 H         2.586915        -1.651778        -1.733608
 H         2.801495         0.778699        -2.616073
