19
Iteration:  4885charge 0 multiplicity 1
 C        -0.200104        -0.035406         0.001237
 C         1.316196         0.011161         0.179016
 C         1.964733         0.986902         1.175558
 C         3.257550         0.468087         0.507911
 C         3.195048        -1.095243         0.399252
 C         3.138037        -1.070013        -1.094931
 C         2.436629         0.262718        -0.967904
 O         2.500775         1.129479        -1.987700
 O         1.772767        -1.252720         0.644562
 H        -0.729569        -0.303717         0.924392
 H        -0.662534         0.848070        -0.497278
 H        -0.431880        -0.803500        -0.706615
 H         1.691721         1.932909         0.633318
 H         1.631019         1.011984         2.279516
 H         4.235224         1.007330         0.748264
 H         3.813181        -1.856781         0.904947
 H         4.071326        -0.944951        -1.750739
 H         2.509587        -1.701644        -1.672733
 H         2.731087         1.972347        -1.588304
