19
Iteration:  1928charge 0 multiplicity 1
 C        -0.185914        -0.034544        -0.165343
 C         1.320080        -0.010731         0.091223
 C         1.926492         1.048038         1.078770
 C         3.270626         0.377679         0.535862
 C         3.061730        -1.226055         0.402810
 C         3.437283        -1.056434        -1.099025
 C         2.607389         0.269147        -0.859995
 O         2.337226         1.292027        -1.710025
 O         1.609995        -1.281201         0.591402
 H        -0.698902        -0.371569         0.857455
 H        -0.537143         0.998506        -0.602097
 H        -0.253665        -0.701798        -0.951755
 H         2.111131         2.090378         0.613982
 H         1.502378         1.116162         2.093692
 H         4.123693         1.045554         0.801616
 H         3.611811        -1.872549         1.099470
 H         4.412743        -0.726554        -1.270844
 H         3.152928        -1.847871        -1.751692
 H         2.686529         1.223472        -2.606897
