19
Iteration:  4164
 C        -0.192627        -0.033893        -0.209403
 C         1.333033         0.030217         0.121087
 C         2.062104         0.997448         1.149958
 C         3.256351         0.446141         0.462211
 C         3.176246        -1.139674         0.402480
 C         3.148756        -1.160118        -1.128814
 C         2.513208         0.240332        -0.853226
 O         2.277704         1.311580        -1.773536
 O         1.795325        -1.256721         0.692819
 H        -0.840078        -0.088026         0.768380
 H        -0.416995         0.906053        -0.749851
 H        -0.373887        -0.950359        -0.891414
 H         1.837334         1.972840         0.742369
 H         1.984423         0.816861         2.190250
 H         4.254186         0.822020         0.717230
 H         3.833858        -1.815752         1.052929
 H         4.139870        -0.990777        -1.443344
 H         2.468954        -1.868719        -1.680566
 H         2.902366         1.291534        -2.547997
