19
Iteration:  1261charge 0 multiplicity 1
 C        -0.230637         0.013378        -0.249308
 C         1.263385        -0.052398         0.063819
 C         1.934217         0.965342         1.065853
 C         3.238965         0.388263         0.620491
 C         3.145377        -1.165977         0.445850
 C         3.357972        -1.058716        -1.097792
 C         2.559698         0.267279        -0.849877
 O         2.376069         1.335815        -1.805541
 O         1.680656        -1.309417         0.694049
 H        -0.774997         0.108181         0.690624
 H        -0.402465         0.829365        -0.936718
 H        -0.646087        -0.810210        -0.751296
 H         1.909187         2.035548         0.707159
 H         1.543739         0.823776         2.100290
 H         4.224665         0.930313         0.634185
 H         3.765047        -1.928315         0.982530
 H         4.462032        -0.832475        -1.373341
 H         3.034805        -1.852326        -1.827662
 H         3.267687         1.520986        -2.231622
