19
Iteration:   600charge 0 multiplicity 1
 C        -0.231440         0.199477        -0.240202
 C         1.226868         0.065327         0.150112
 C         2.050441         0.878072         1.174584
 C         3.316698         0.407230         0.455036
 C         3.158888        -1.189555         0.427320
 C         3.152091        -1.191990        -1.099929
 C         2.472863         0.255345        -0.855620
 O         2.459528         1.201560        -1.919317
 O         1.736719        -1.275218         0.712072
 H        -0.791208        -0.180260         0.719571
 H        -0.373895         1.382375        -0.401702
 H        -0.593241        -0.352079        -1.127922
 H         2.015266         1.946921         1.018757
 H         1.864362         0.637250         2.240698
 H         4.307460         0.789302         0.433446
 H         3.664808        -1.813773         1.207406
 H         3.987957        -0.861563        -1.631031
 H         2.714550        -1.873418        -1.692676
 H         2.833404         1.943121        -1.398631
