19
Iteration:  4657charge 0 multiplicity 1
 C        -0.122787         0.087646        -0.202955
 C         1.362586        -0.044475         0.131528
 C         1.966085         1.023934         1.128893
 C         3.248136         0.411695         0.505174
 C         3.171856        -1.131151         0.327626
 C         3.219977        -1.122145        -1.121356
 C         2.579735         0.253542        -0.898688
 O         2.308742         1.265266        -1.804737
 O         1.757304        -1.293269         0.759833
 H        -0.693279        -0.006875         0.778846
 H        -0.362022         1.101263        -0.704134
 H        -0.382669        -0.656893        -0.950924
 H         1.726360         1.972739         0.677941
 H         1.774520         1.026570         2.232332
 H         4.270248         0.803965         0.772276
 H         3.716069        -1.943081         0.780626
 H         4.270468        -1.031125        -1.501704
 H         2.547597        -1.887278        -1.458726
 H         1.502184         0.856822        -2.154399
