19
Iteration:  2587charge 0 multiplicity 1
 C        -0.204770        -0.034404        -0.075705
 C         1.284138         0.034613         0.045750
 C         1.966119         0.993881         1.035060
 C         3.237293         0.308139         0.560265
 C         3.088808        -1.199024         0.453414
 C         3.367852        -0.971480        -1.081193
 C         2.467852         0.252777        -0.849510
 O         2.434434         1.367609        -1.833118
 O         1.731064        -1.309375         0.614908
 H        -0.775140        -0.306798         0.935318
 H        -0.641671         0.916050        -0.232199
 H        -0.748481        -0.707199        -0.794258
 H         1.922976         2.043471         0.696535
 H         1.644719         0.818357         2.047010
 H         4.255280         0.716618         0.616568
 H         3.715897        -1.782759         1.056122
 H         4.471194        -0.679673        -1.154601
 H         3.021535        -1.807582        -1.922760
 H         2.525779         0.783338        -2.620673
