19
Iteration:  4175
 C        -0.205452         0.012202        -0.153792
 C         1.312833        -0.052740         0.192050
 C         1.977926         0.947588         1.070884
 C         3.334701         0.479708         0.490897
 C         3.148363        -1.157769         0.463938
 C         3.191432        -1.097794        -1.172716
 C         2.554319         0.272004        -0.934817
 O         2.311118         1.380293        -1.873749
 O         1.760699        -1.338383         0.773804
 H        -0.779160        -0.054627         0.886207
 H        -0.584035         0.937031        -0.659657
 H        -0.587817        -0.904071        -0.737290
 H         1.765431         1.997635         0.907245
 H         1.707372         0.792658         2.084089
 H         4.346531         0.931929         0.497616
 H         3.839222        -1.833527         1.090211
 H         4.121367        -1.189711        -1.658503
 H         2.612842        -1.892164        -1.749095
 H         3.164373         1.244996        -2.342443
