19
Iteration:  4747
 C        -0.125347         0.015798        -0.122277
 C         1.324071        -0.046952         0.190144
 C         2.008868         1.150763         1.072489
 C         3.277185         0.433473         0.467806
 C         3.167232        -1.154222         0.515362
 C         3.143711        -1.158679        -1.182418
 C         2.499137         0.212117        -0.895175
 O         2.388568         1.335493        -1.806569
 O         1.752484        -1.341814         0.684569
 H        -0.639685        -0.299582         0.860685
 H        -0.556975         0.959608        -0.560586
 H        -0.361155        -0.723871        -0.882974
 H         1.732340         2.059287         0.574338
 H         1.817540         1.157108         2.127996
 H         4.251425         0.934320         0.564215
 H         3.752936        -1.983537         1.017346
 H         4.130760        -0.952796        -1.697995
 H         2.540593        -1.919881        -1.737750
 H         2.068905         0.980034        -2.663115
