19
Iteration:  1308
 C        -0.172257         0.050922        -0.347616
 C         1.300083        -0.029595         0.126315
 C         1.955836         0.948503         1.195621
 C         3.306630         0.444495         0.606329
 C         3.151374        -1.155411         0.528045
 C         3.228853        -0.998648        -1.065163
 C         2.514307         0.311869        -0.867763
 O         2.330963         1.251373        -1.904046
 O         1.726411        -1.384151         0.632951
 H        -0.744775        -0.023043         0.487246
 H        -0.382897         1.012935        -0.909602
 H        -0.499128        -0.666645        -1.120021
 H         1.789628         1.961033         0.913229
 H         1.745769         0.781869         2.263652
 H         4.224548         0.778631         0.992647
 H         3.741371        -1.832672         1.147885
 H         4.289024        -0.850441        -1.602553
 H         2.777411        -1.857895        -1.621736
 H         3.243531         1.486205        -2.129122
