19
Iteration:  2410charge 0 multiplicity 1
 C        -0.214137        -0.131122        -0.104091
 C         1.256964         0.077878         0.089613
 C         1.908158         0.966965         1.208098
 C         3.214357         0.483867         0.619946
 C         3.120809        -1.111055         0.379262
 C         3.283885        -1.059332        -1.092628
 C         2.568105         0.317846        -0.935728
 O         2.603387         1.252527        -1.886088
 O         1.659933        -1.270857         0.564387
 H        -0.589148        -0.364027         1.110429
 H        -0.881593         0.744407        -0.340067
 H        -0.483437        -0.990998        -0.672619
 H         1.719172         2.005701         1.126201
 H         1.687108         0.653307         2.249287
 H         4.200157         0.817321         0.845482
 H         3.823731        -1.891534         0.834438
 H         4.402683        -0.878195        -1.439576
 H         2.841371        -1.918722        -1.752786
 H         1.943275         1.118838        -2.601277
