19
Iteration:  2050
 C        -0.215923        -0.012539        -0.144392
 C         1.265631        -0.037902         0.102868
 C         1.894913         0.961755         1.093411
 C         3.225367         0.421349         0.509295
 C         3.181705        -1.113849         0.488671
 C         3.246727        -1.037497        -1.124467
 C         2.589755         0.262773        -0.869193
 O         2.565310         1.273315        -1.827134
 O         1.671168        -1.296663         0.610650
 H        -0.774762        -0.377330         0.834917
 H        -0.524766         0.965833        -0.480027
 H        -0.359889        -0.695568        -0.914993
 H         1.701187         2.011451         0.705561
 H         1.742183         0.783563         2.186870
 H         4.283306         0.764746         0.647276
 H         3.601767        -1.881789         1.088399
 H         4.222928        -0.684716        -1.431497
 H         2.935579        -1.867110        -1.746750
 H         1.665656         1.559687        -1.910117
