19
Iteration:  1563
 C        -0.191476        -0.039729        -0.275026
 C         1.295193         0.081499         0.083113
 C         1.910317         0.963892         1.146420
 C         3.281336         0.462862         0.585288
 C         3.107973        -1.199696         0.440366
 C         3.311981        -1.005077        -1.110823
 C         2.583247         0.247278        -0.785192
 O         2.383137         1.206960        -1.847325
 O         1.644483        -1.292022         0.605745
 H        -0.686976        -0.342067         0.717699
 H        -0.491540         0.876522        -0.603863
 H        -0.335118        -0.983783        -0.970066
 H         1.876969         2.057911         1.040175
 H         1.718204         0.753285         2.209636
 H         4.284384         1.008351         0.520275
 H         3.634663        -1.799832         1.181889
 H         4.398538        -0.830326        -1.435932
 H         2.892398        -1.703938        -1.865659
 H         3.201445         1.724626        -1.749235
