19
Iteration:  1663charge 0 multiplicity 1
 C        -0.002209        -0.031888        -0.460333
 C         1.331187        -0.004708         0.120408
 C         2.037376         0.909898         1.307288
 C         3.286508         0.472120         0.548878
 C         3.062533        -1.068991         0.430331
 C         3.210905        -1.073376        -1.061797
 C         2.620364         0.387236        -0.813787
 O         2.228775         1.197991        -1.824728
 O         1.613180        -1.286619         0.621712
 H        -0.724575        -0.357188         0.466140
 H        -0.300414         0.919677        -0.936239
 H        -0.052513        -0.867210        -1.171660
 H         1.870452         1.941184         1.334458
 H         1.729584         0.507154         2.307937
 H         4.253497         0.870800         0.731942
 H         3.651262        -1.727608         1.066965
 H         4.275945        -1.091076        -1.360608
 H         2.702077        -1.801796        -1.675294
 H         3.078468         1.478892        -2.174066
