19
Iteration:  1121
 C        -0.191257         0.003093        -0.237741
 C         1.272152         0.040346         0.251041
 C         1.901984         0.963713         1.224244
 C         3.275272         0.522116         0.543048
 C         3.085357        -1.129253         0.444722
 C         3.323284        -1.140921        -1.082957
 C         2.576400         0.254261        -0.920044
 O         2.430547         1.258371        -1.898957
 O         1.646846        -1.326996         0.581541
 H        -0.824344        -0.197063         0.607005
 H        -0.355367         0.969351        -0.977447
 H        -0.140047        -0.848974        -0.932553
 H         1.601903         1.972578         1.249038
 H         1.617803         0.555682         2.193340
 H         4.265346         0.910628         0.606174
 H         3.603049        -1.938657         1.026897
 H         4.377703        -0.912953        -1.342477
 H         2.927516        -1.796732        -1.812348
 H         3.289240         1.758234        -2.015335
