19
Iteration:  1931charge 0 multiplicity 1
 C        -0.167304        -0.018494        -0.169440
 C         1.334449         0.007511         0.092483
 C         1.919953         1.037763         1.082782
 C         3.297922         0.393239         0.520483
 C         3.058460        -1.236886         0.433162
 C         3.434986        -1.062643        -1.093941
 C         2.586751         0.265890        -0.833567
 O         2.318938         1.310442        -1.718812
 O         1.610878        -1.276071         0.584181
 H        -0.678344        -0.361303         0.794448
 H        -0.524181         0.902201        -0.592746
 H        -0.298811        -0.869431        -1.088756
 H         2.009257         1.998093         0.597876
 H         1.552343         1.038186         2.111378
 H         4.188421         1.040979         0.741936
 H         3.514663        -1.968766         1.037015
 H         4.431300        -0.723968        -1.279999
 H         3.125679        -1.862624        -1.737295
 H         2.739379         1.156862        -2.614773
