19
Iteration:  2618
 C        -0.091980         0.032933        -0.261917
 C         1.316590        -0.061091         0.193278
 C         1.992914         0.920912         1.222005
 C         3.253316         0.558359         0.493475
 C         3.177786        -1.146020         0.471500
 C         3.200379        -1.081891        -1.086578
 C         2.525193         0.289731        -0.862132
 O         2.315995         1.299109        -1.876340
 O         1.708617        -1.356391         0.617355
 H        -0.821085        -0.344698         0.474044
 H        -0.386017         1.092395        -0.593736
 H        -0.380069        -0.539109        -1.166765
 H         1.491743         1.898301         1.124523
 H         1.966046         0.526173         2.249855
 H         4.164191         1.136813         0.560190
 H         3.782098        -1.799116         1.055089
 H         4.143160        -1.225983        -1.611615
 H         2.466109        -1.721818        -1.526735
 H         3.213367         1.274114        -2.262313
