19
Iteration:  2396
 C        -0.282503        -0.136317        -0.034413
 C         1.250482         0.040762         0.071569
 C         1.943650         0.915002         1.114953
 C         3.271647         0.447371         0.489549
 C         3.058553        -1.159891         0.458973
 C         3.329621        -1.032650        -1.092622
 C         2.625923         0.302146        -0.829154
 O         2.553836         1.345358        -1.873294
 O         1.678866        -1.250940         0.546385
 H        -0.684529        -0.356346         0.890389
 H        -0.792729         0.768576        -0.578671
 H        -0.380128        -0.970606        -0.692466
 H         1.824491         2.022397         0.971629
 H         1.638036         0.613746         2.151397
 H         4.229373         1.011685         0.680597
 H         3.406192        -1.823605         1.303142
 H         4.408917        -0.901999        -1.264728
 H         2.843186        -1.772201        -1.703809
 H         1.950728         0.924111        -2.486671
