19
Iteration:  4241
 C        -0.194486         0.012931        -0.106989
 C         1.295459         0.000991         0.167365
 C         2.036612         0.929769         1.170075
 C         3.332424         0.463852         0.481322
 C         3.091752        -1.087016         0.452984
 C         3.243740        -1.058250        -1.125695
 C         2.511202         0.259590        -0.929148
 O         2.354734         1.201817        -1.990321
 O         1.737399        -1.303990         0.655492
 H        -0.686404        -0.297103         0.904798
 H        -0.521834         1.065726        -0.352579
 H        -0.326946        -0.849000        -0.773315
 H         1.858213         2.014732         1.054634
 H         1.959638         0.657011         2.190802
 H         4.297228         0.963298         0.745815
 H         3.638715        -1.809437         1.164469
 H         4.281224        -1.054903        -1.384852
 H         2.688541        -1.839264        -1.710144
 H         2.064502         2.052108        -1.621577
