19
Iteration:  1335
 C        -0.044117         0.086026        -0.399476
 C         1.309412        -0.063276         0.167389
 C         1.844884         0.904284         1.190204
 C         3.282582         0.510383         0.501019
 C         3.166731        -1.204063         0.382249
 C         3.258254        -1.041289        -1.151750
 C         2.496102         0.268530        -0.823234
 O         2.320648         1.208753        -1.789364
 O         1.714224        -1.285485         0.779816
 H        -0.998707        -0.242874         0.354879
 H        -0.121251         1.129537        -0.644144
 H        -0.159191        -0.271205        -1.474019
 H         1.686571         2.018563         0.989003
 H         1.649831         0.669638         2.245297
 H         4.224656         1.142776         0.748402
 H         3.755145        -1.870107         1.051138
 H         4.169807        -0.961129        -1.570445
 H         2.751554        -1.787645        -1.766084
 H         3.237408         1.401899        -1.977603
