19
Iteration:  3293charge 0 multiplicity 1
 C        -0.058299         0.130413        -0.383611
 C         1.349837        -0.025288         0.203249
 C         2.119414         0.994239         1.307701
 C         3.354407         0.473258         0.526601
 C         3.156941        -1.176993         0.454362
 C         3.071253        -1.083359        -1.173201
 C         2.513406         0.312119        -0.857110
 O         2.211159         1.134216        -1.889203
 O         1.748801        -1.358109         0.699055
 H        -0.956468        -0.157322         0.351599
 H        -0.108244         1.230925        -0.681999
 H        -0.184422        -0.497986        -1.196760
 H         1.849342         1.935394         0.766776
 H         1.916263         1.025122         2.431879
 H         4.435030         0.720543         0.756248
 H         3.824461        -1.860439         0.917990
 H         4.031344        -1.036758        -1.661658
 H         2.336276        -1.823936        -1.600706
 H         1.940206         2.078103        -1.781519
