19
Iteration:  4058
 C        -0.101243         0.203866         0.265105
 C         1.449271         0.043169         0.059941
 C         2.066124         0.778449        -1.188779
 C         3.442469        -0.064714        -1.105529
 C         2.850105        -1.540333        -1.516569
 C         2.103034        -1.429839        -0.112093
 O         1.436031        -2.420651         0.582308
 C         3.266968        -0.490294         0.404980
 O         2.328445         0.413885         1.149074
 H        -0.347647         0.005372         1.318629
 H        -0.653094         1.188368        -0.104422
 H        -0.706050        -0.551182        -0.455369
 H         1.639026         0.848141        -2.181935
 H         2.092815         1.851088        -0.922832
 H         4.350022         0.383931        -1.425010
 H         2.338303        -1.674056        -2.464895
 H         3.697494        -2.341257        -1.460474
 H         2.109177        -2.929778         0.987641
 H         4.255567        -0.838990         0.669289
