19
Iteration:  4987
 C        -0.016315         0.484024         0.420571
 C         1.366473         0.057412         0.107940
 C         2.086087         0.848719        -1.089828
 C         3.356204        -0.102736        -1.169654
 C         2.739413        -1.503643        -1.615923
 C         2.018316        -1.446176        -0.175536
 O         1.546855        -2.537309         0.471602
 C         3.300508        -0.607842         0.357277
 O         2.408866         0.262591         1.161819
 H        -0.135418         0.490058         1.521649
 H        -0.165094         1.433984        -0.102702
 H        -0.693832        -0.340906         0.013508
 H         1.414176         0.946980        -2.078560
 H         2.232499         1.924119        -0.868735
 H         4.367132         0.302786        -1.618947
 H         2.205166        -1.491381        -2.570106
 H         3.403258        -2.386931        -1.495948
 H         1.761217        -2.354849         1.386514
 H         4.044320        -1.063121         0.997786
