19
Iteration:  2451
 C        -0.045176         0.305773         0.414569
 C         1.383008         0.004625        -0.046746
 C         1.986924         0.819332        -1.158346
 C         3.288596        -0.084365        -1.235826
 C         2.871639        -1.527630        -1.534419
 C         2.112491        -1.412685        -0.079729
 O         1.533022        -2.503073         0.550289
 C         3.286653        -0.562810         0.453091
 O         2.371417         0.438505         1.109186
 H        -0.265692         0.140066         1.437561
 H        -0.231012         1.342006         0.131768
 H        -0.825273        -0.292142        -0.219611
 H         1.529024         0.695360        -2.144508
 H         2.207405         1.861516        -1.071425
 H         4.130203         0.315620        -1.645954
 H         2.290109        -1.788203        -2.442389
 H         3.602659        -2.328480        -1.288430
 H         2.161102        -2.603367         1.351278
 H         4.250350        -0.982925         0.927758
