19
Iteration:  2682charge 0 multiplicity 1
 C        -0.066993         0.069343         0.339207
 C         1.469148         0.095583         0.046578
 C         2.020356         0.808798        -1.233699
 C         3.291443        -0.068340        -1.158087
 C         2.830341        -1.619468        -1.382887
 C         2.193716        -1.378779        -0.081506
 O         1.394034        -2.372230         0.548884
 C         3.326588        -0.465338         0.433337
 O         2.409057         0.455566         1.071010
 H        -0.209861        -0.429694         1.343434
 H        -0.544209         1.012101         0.377529
 H        -0.495528        -0.412055        -0.608793
 H         1.329153         0.690374        -2.102009
 H         2.342152         1.815566        -0.948599
 H         3.951616         0.404457        -2.008303
 H         2.113604        -1.660864        -2.155907
 H         3.830000        -2.203651        -1.536081
 H         1.748908        -3.299618         0.476866
 H         4.241345        -0.708042         1.034625
