19
Iteration:  1234charge 0 multiplicity 1
 C         0.059537         0.192451         0.436960
 C         1.469241        -0.004614         0.122356
 C         2.003392         0.772805        -1.170365
 C         3.223201        -0.077463        -1.295923
 C         2.712273        -1.541452        -1.528975
 C         2.151591        -1.401674        -0.066277
 O         1.512837        -2.451030         0.574980
 C         3.294805        -0.466821         0.354257
 O         2.479101         0.428315         1.123730
 H        -0.261292        -0.535871         1.150072
 H        -0.032080         1.243040         0.685155
 H        -0.669583         0.087689        -0.412571
 H         1.371293         0.590753        -2.134656
 H         2.382885         1.816537        -0.999011
 H         4.064636         0.331454        -1.892031
 H         1.988790        -1.629943        -2.342076
 H         3.535167        -2.391176        -1.499142
 H         0.618995        -2.253623         0.363936
 H         4.104822        -0.741465         1.023627
