19
Iteration:   692
 C        -0.041460         0.183515         0.396764
 C         1.336260         0.022168         0.005423
 C         2.029258         0.763441        -1.216429
 C         3.355617        -0.057634        -1.128546
 C         2.808751        -1.534568        -1.458632
 C         2.087918        -1.350316        -0.131438
 O         1.600265        -2.384206         0.604508
 C         3.242681        -0.498802         0.438523
 O         2.393503         0.384806         1.053522
 H        -0.081635        -0.506643         1.203395
 H        -0.394289         1.165075         0.684949
 H        -0.717231        -0.051197        -0.395713
 H         1.509891         0.681338        -2.179872
 H         2.062915         1.878717        -1.091663
 H         4.302695         0.367580        -1.617255
 H         2.156477        -1.556070        -2.373850
 H         3.432190        -2.375039        -1.485515
 H         1.899978        -3.209411         0.249259
 H         4.035799        -0.897352         0.956206
