19
Iteration:  3263
 C        -0.030424         0.316024         0.289138
 C         1.408734         0.068458         0.052519
 C         2.064701         0.754006        -1.238362
 C         3.375105        -0.073760        -1.112571
 C         2.788836        -1.488733        -1.502587
 C         2.103990        -1.425189        -0.078038
 O         1.531524        -2.552994         0.588235
 C         3.281553        -0.454927         0.382067
 O         2.303950         0.375196         1.144311
 H        -0.360086        -0.139300         1.196775
 H        -0.163454         1.473870         0.346860
 H        -0.666130        -0.168402        -0.485618
 H         1.393732         0.501154        -2.117609
 H         1.987434         1.884284        -0.934369
 H         4.130374         0.615846        -1.443006
 H         2.357293        -1.577291        -2.440255
 H         3.446105        -2.441578        -1.497185
 H         2.295295        -3.180362         0.648988
 H         4.231800        -0.642217         0.844995
