19
Iteration:   977
 C        -0.093109         0.233577         0.483941
 C         1.388388         0.120774        -0.011436
 C         2.066233         0.713657        -1.224602
 C         3.364176        -0.116831        -1.179856
 C         2.797163        -1.476258        -1.512506
 C         2.103050        -1.420837        -0.130048
 O         1.671169        -2.505477         0.577545
 C         3.199889        -0.497160         0.446542
 O         2.374207         0.453508         1.085674
 H        -0.140703        -0.479103         1.390155
 H        -0.473300         1.313027         0.591375
 H        -0.785368        -0.127205        -0.280638
 H         1.405342         0.561720        -2.137404
 H         2.437282         1.813052        -1.161841
 H         4.134520         0.344510        -1.722791
 H         2.166528        -1.739464        -2.505856
 H         3.668211        -2.187995        -1.516572
 H         0.733449        -2.517313         0.728730
 H         4.161022        -0.996736         0.883167
