19
Iteration:  2540charge 0 multiplicity 1
 C        -0.051137         0.147844         0.480365
 C         1.359201         0.049585        -0.060298
 C         2.067221         0.811584        -1.177702
 C         3.369861        -0.127828        -1.217266
 C         2.868860        -1.578217        -1.471797
 C         2.153657        -1.403142        -0.124905
 O         1.570358        -2.397822         0.626204
 C         3.210008        -0.464750         0.357010
 O         2.348461         0.439561         1.058277
 H        -0.255760        -0.714888         1.156788
 H        -0.342767         1.057365         0.939518
 H        -0.707397         0.118270        -0.485616
 H         1.517764         0.852994        -2.157834
 H         2.236521         1.813968        -0.766626
 H         4.389718         0.231014        -1.498978
 H         2.218930        -1.899504        -2.267533
 H         3.702473        -2.358059        -1.330825
 H         0.561684        -2.383423         0.557194
 H         4.184857        -0.768761         0.816996
