19
Iteration:  2957charge 0 multiplicity 1
 C        -0.076668         0.268913         0.283299
 C         1.430515        -0.001515         0.106627
 C         2.002152         0.701710        -1.236606
 C         3.357884        -0.076743        -1.190981
 C         2.863205        -1.455254        -1.522259
 C         2.076158        -1.378248        -0.076899
 O         1.471798        -2.441017         0.620013
 C         3.336447        -0.450787         0.366120
 O         2.383595         0.333781         1.164488
 H        -0.441332        -0.496312         0.962062
 H        -0.076289         1.376455         0.602127
 H        -0.661807         0.242976        -0.579859
 H         1.489838         0.290209        -2.078948
 H         2.074626         1.809976        -0.986396
 H         4.073134         0.517077        -1.774196
 H         2.197995        -1.622143        -2.379133
 H         3.592666        -2.197140        -1.955701
 H         1.970084        -2.935953         1.337925
 H         4.150666        -0.732947         0.896124
