19
Iteration:  2457charge 0 multiplicity 1
 C        -0.053446         0.282580         0.344655
 C         1.431525         0.001662        -0.011514
 C         2.001120         0.814587        -1.181283
 C         3.228884        -0.079567        -1.263016
 C         2.901460        -1.526578        -1.511382
 C         2.106931        -1.399376        -0.050947
 O         1.522172        -2.525636         0.561116
 C         3.267079        -0.523457         0.438799
 O         2.408098         0.421835         1.108847
 H        -0.370724         0.276125         1.447182
 H        -0.084376         1.418502         0.189261
 H        -0.821693        -0.299594        -0.077040
 H         1.341487         0.822493        -2.087489
 H         2.177299         1.931988        -0.989510
 H         4.238426         0.374794        -1.661938
 H         2.189557        -1.661197        -2.354591
 H         3.642260        -2.271743        -1.269740
 H         2.056786        -2.963228         1.271713
 H         4.076758        -0.974953         0.965155
