19
Iteration:  3027charge 0 multiplicity 1
 C        -0.005080         0.140741         0.425072
 C         1.408846         0.076825         0.011914
 C         2.074845         0.733230        -1.243024
 C         3.349975        -0.074744        -1.092943
 C         2.790846        -1.535654        -1.474492
 C         2.172881        -1.366089        -0.113909
 O         1.496194        -2.385324         0.583548
 C         3.265760        -0.533365         0.447787
 O         2.323441         0.468708         1.036814
 H        -0.002464        -0.525374         1.288475
 H        -0.270293         1.166975         0.640737
 H        -0.806498        -0.354503        -0.217651
 H         1.610637         0.591983        -2.255264
 H         2.195893         1.790374        -1.021614
 H         4.289434         0.258413        -1.513550
 H         2.194793        -1.519043        -2.431231
 H         3.450180        -2.329579        -1.623260
 H         1.284172        -3.107603        -0.104114
 H         4.176492        -0.753654         1.133049
