19
Iteration:   295charge 0 multiplicity 1
 C        -0.085936         0.261813         0.428153
 C         1.356365         0.036652        -0.047041
 C         1.994509         0.781186        -1.122831
 C         3.333134        -0.026041        -1.200278
 C         2.863529        -1.619962        -1.556670
 C         2.184900        -1.424862        -0.142326
 O         1.691984        -2.407780         0.635639
 C         3.288655        -0.517466         0.401993
 O         2.269547         0.352298         1.086195
 H        -0.219265        -0.376820         1.363199
 H        -0.466606         1.314750         0.571827
 H        -0.735015        -0.029245        -0.370822
 H         1.526944         0.867839        -2.117082
 H         2.223377         1.844974        -0.746795
 H         4.116592         0.487775        -1.648027
 H         2.299447        -1.804845        -2.501776
 H         3.675095        -2.319657        -1.413874
 H         0.797341        -2.238271         0.461696
 H         4.116761        -0.924519         1.062648
