19
Iteration:   291
 C        -0.093821         0.271766         0.421527
 C         1.400415         0.005933        -0.028069
 C         1.965346         0.805332        -1.116865
 C         3.356317        -0.023978        -1.191728
 C         2.862517        -1.617715        -1.560701
 C         2.229485        -1.412115        -0.128654
 O         1.672313        -2.397746         0.635148
 C         3.282582        -0.495836         0.372026
 O         2.260296         0.307608         1.085866
 H        -0.364473        -0.262894         1.298659
 H        -0.394279         1.283931         0.538403
 H        -0.852359        -0.079951        -0.382038
 H         1.414311         0.932403        -2.137330
 H         2.349003         1.784029        -0.760723
 H         4.145875         0.503331        -1.772012
 H         2.269246        -1.835884        -2.399177
 H         3.662924        -2.388105        -1.338399
 H         0.647192        -2.313773         0.568461
 H         4.109796        -0.752271         0.980280
