19
Iteration:  3080charge 0 multiplicity 1
 C        -0.078689         0.367541         0.369240
 C         1.334795         0.081552         0.035999
 C         2.012769         0.833835        -1.167715
 C         3.352658        -0.099751        -1.127667
 C         2.857676        -1.589324        -1.483595
 C         2.194436        -1.444148        -0.142649
 O         1.693896        -2.565252         0.556938
 C         3.191690        -0.497382         0.400542
 O         2.335657         0.388071         1.072774
 H        -0.434651        -0.012449         1.282242
 H        -0.271069         1.471685         0.389579
 H        -0.641714        -0.015537        -0.489012
 H         1.565254         0.521041        -2.096409
 H         2.138361         1.851536        -0.827165
 H         4.275874         0.181366        -1.605613
 H         2.140781        -1.712380        -2.388500
 H         3.623071        -2.350018        -1.514135
 H         0.704631        -2.440467         0.760178
 H         3.986380        -0.659542         1.144617
