19
Iteration:    25
 C        -0.091054         0.155880         0.393570
 C         1.402046         0.129748         0.029391
 C         2.085361         0.665934        -1.293417
 C         3.376535        -0.103985        -1.115820
 C         2.751538        -1.480546        -1.439926
 C         2.084417        -1.320934        -0.077846
 O         1.692163        -2.578795         0.428931
 C         3.228686        -0.436299         0.479094
 O         2.374020         0.546629         1.139608
 H        -0.242009        -0.570380         1.259529
 H        -0.620933         1.135374         0.609128
 H        -0.552245        -0.451446        -0.370047
 H         1.455036         0.357816        -2.285054
 H         2.078228         1.800279        -1.338338
 H         4.502050         0.145471        -1.454780
 H         2.183945        -1.558591        -2.434312
 H         3.324131        -2.373883        -1.421166
 H         0.745042        -2.590535         0.851382
 H         3.963589        -0.854011         1.127368
