19
Iteration:   702
 C         0.010168         0.163924         0.395038
 C         1.417036         0.031436        -0.109439
 C         2.070162         0.748012        -1.189482
 C         3.333406        -0.140710        -1.112790
 C         2.747992        -1.452011        -1.534854
 C         2.136341        -1.384887        -0.101031
 O         1.564975        -2.447269         0.657658
 C         3.246029        -0.456044         0.386049
 O         2.310106         0.435158         1.110183
 H        -0.157035        -0.498152         1.223207
 H        -0.195292         1.233289         0.748012
 H        -0.648290        -0.190589        -0.367266
 H         1.483429         0.634137        -2.173420
 H         2.268008         1.834266        -0.916636
 H         4.194536         0.480806        -1.552863
 H         2.011265        -1.439870        -2.414316
 H         3.425195        -2.263917        -1.577603
 H         1.948469        -3.221510         0.316743
 H         4.067053        -0.654179         0.972668
