19
Iteration:   380charge 0 multiplicity 1
 C        -0.036236         0.200405         0.373568
 C         1.353213         0.050145         0.011171
 C         2.025286         0.774740        -1.156107
 C         3.316118        -0.011720        -1.159104
 C         2.830892        -1.498395        -1.455737
 C         2.102278        -1.435323        -0.158152
 O         1.495693        -2.418376         0.614871
 C         3.299795        -0.472770         0.324273
 O         2.388433         0.355277         1.094469
 H        -0.290133        -0.452533         1.207120
 H        -0.122165         1.216192         0.687428
 H        -0.680396        -0.165480        -0.450928
 H         1.290744         0.449221        -2.000137
 H         2.039371         1.903152        -1.073689
 H         4.141040         0.325985        -1.654807
 H         2.468895        -1.770534        -2.453954
 H         3.842241        -2.029761        -1.335276
 H         2.156217        -3.180579         0.857210
 H         4.239565        -0.732215         0.851017
