19
Iteration:  2921charge 0 multiplicity 1
 C        -0.014115         0.289856         0.434106
 C         1.320020         0.043913        -0.075865
 C         2.069013         0.810529        -1.191696
 C         3.304261        -0.123521        -1.156736
 C         2.833214        -1.605112        -1.467822
 C         2.055209        -1.345708        -0.105319
 O         1.666130        -2.557001         0.486693
 C         3.187817        -0.518009         0.434988
 O         2.341507         0.460755         1.073442
 H        -0.180224        -0.109937         1.440923
 H        -0.084708         1.294088         0.618607
 H        -0.776908         0.015004        -0.312683
 H         1.571215         0.906248        -2.163127
 H         2.288767         1.823861        -0.910531
 H         4.209174         0.208707        -1.647151
 H         2.174148        -1.674040        -2.270327
 H         3.752305        -2.202296        -1.399511
 H         1.842349        -2.455982         1.500871
 H         3.948437        -1.059079         1.052060
