19
Iteration:  3089charge 0 multiplicity 1
 C        -0.040299         0.349170         0.323594
 C         1.398245         0.011864        -0.007167
 C         2.045369         0.760811        -1.160231
 C         3.331406        -0.071460        -1.088867
 C         2.761060        -1.561166        -1.459345
 C         2.100409        -1.435320        -0.136395
 O         1.743080        -2.550459         0.545984
 C         3.232346        -0.483752         0.453403
 O         2.276804         0.394106         1.047032
 H        -0.247426        -0.061548         1.356111
 H        -0.039354         1.518934         0.469090
 H        -0.770770         0.078695        -0.440626
 H         1.585173         0.930892        -2.167190
 H         2.110318         1.894024        -1.026495
 H         4.310480         0.284321        -1.498849
 H         2.145572        -1.542444        -2.430696
 H         3.641814        -2.280321        -1.414091
 H         0.845193        -2.399945         1.018923
 H         4.097895        -0.938797         0.885469
