19
Iteration:  3572
 C        -0.066667         0.301495         0.328657
 C         1.360610         0.007028        -0.029912
 C         2.063276         0.721983        -1.172894
 C         3.310443        -0.115083        -1.095328
 C         2.838175        -1.521315        -1.420893
 C         2.117342        -1.389164        -0.101783
 O         1.590251        -2.489570         0.526001
 C         3.299026        -0.459371         0.437713
 O         2.347571         0.488581         1.087010
 H        -0.435049        -0.351037         1.083263
 H        -0.063676         1.285616         0.727046
 H        -0.829232         0.160096        -0.421888
 H         1.508751         0.489742        -2.146955
 H         2.169390         1.776604        -0.824962
 H         4.255999         0.289859        -1.556066
 H         2.168317        -1.678862        -2.299734
 H         3.508704        -2.419248        -1.303600
 H         1.609063        -3.209931        -0.131924
 H         3.973054        -1.032328         1.063960
