19
Iteration:  2979
 C        -0.005619         0.159247         0.345342
 C         1.377746         0.041132        -0.028864
 C         2.024180         0.797382        -1.134837
 C         3.297310        -0.135911        -1.139351
 C         2.761205        -1.518354        -1.444018
 C         2.162843        -1.364603        -0.148249
 O         1.501621        -2.366795         0.587019
 C         3.257119        -0.490351         0.444947
 O         2.421759         0.402632         1.071205
 H        -0.400905        -0.741465         0.772264
 H        -0.215155         1.228937         0.627914
 H        -0.457766         0.104093        -0.612199
 H         1.386402         0.596858        -1.998779
 H         2.205965         1.899899        -0.928369
 H         4.230027         0.227761        -1.616394
 H         2.175412        -1.748461        -2.336299
 H         3.601946        -2.258182        -1.632356
 H         2.005049        -3.113875         0.887571
 H         4.128672        -0.790013         0.910936
