19
Iteration:  2721
 C        -0.033177         0.131513         0.481983
 C         1.357411         0.088630        -0.028528
 C         2.060173         0.715407        -1.220850
 C         3.377651        -0.117656        -1.084212
 C         2.809342        -1.527902        -1.483082
 C         2.143764        -1.397028        -0.113113
 O         1.500352        -2.407307         0.559902
 C         3.287877        -0.440143         0.418643
 O         2.323623         0.492489         1.022166
 H        -0.162979        -0.527954         1.302349
 H        -0.304590         1.204386         0.676972
 H        -0.728995        -0.166416        -0.341516
 H         1.822817         0.508031        -2.291488
 H         2.330100         1.764945        -1.065293
 H         4.242922         0.356652        -1.478221
 H         2.146919        -1.568964        -2.413083
 H         3.328592        -2.427714        -1.529236
 H         1.939654        -3.230426         0.419356
 H         4.094776        -0.864595         1.099222
