19
Iteration:  2845
 C        -0.099822         0.145482         0.368942
 C         1.390447         0.044629         0.055839
 C         2.017673         0.843233        -1.228200
 C         3.349506        -0.100254        -1.197207
 C         2.862883        -1.527215        -1.458779
 C         2.167378        -1.439965        -0.121147
 O         1.483736        -2.466864         0.562851
 C         3.255615        -0.436885         0.330430
 O         2.448107         0.387546         1.170778
 H        -0.384895        -0.367568         1.343008
 H        -0.448349         1.147703         0.451341
 H        -0.631445        -0.227038        -0.548333
 H         1.426052         0.645881        -2.120164
 H         2.312361         1.867696        -0.966117
 H         4.217540         0.310015        -1.768860
 H         2.272362        -1.700729        -2.326973
 H         3.673644        -2.350061        -1.385841
 H         1.049755        -1.822586         1.117858
 H         4.217320        -0.752259         0.810396
