19
Iteration:  4246charge 0 multiplicity 1
 C         0.026257         0.073399         0.232163
 C         1.451032         0.015669         0.011492
 C         2.078940         0.783630        -1.097283
 C         3.417485        -0.112973        -1.165289
 C         2.823839        -1.508470        -1.484006
 C         2.094593        -1.337458        -0.124450
 O         1.343771        -2.309982         0.590956
 C         3.296859        -0.445857         0.412445
 O         2.309545         0.373650         1.143984
 H        -0.080223        -0.264962         1.292551
 H        -0.348647         1.033991        -0.170090
 H        -0.504200        -0.735067        -0.294496
 H         1.741608         0.710194        -2.062835
 H         2.039789         1.842441        -0.848160
 H         4.400357         0.150406        -1.559548
 H         2.157925        -1.458633        -2.276368
 H         3.650252        -2.239756        -1.597953
 H         1.975237        -3.079965         0.860379
 H         4.170103        -0.749386         0.822652
