19
Iteration:  1288
 C         0.080576         0.354417         0.538082
 C         1.380700         0.097932         0.010714
 C         1.998292         0.736865        -1.192569
 C         3.349931        -0.173178        -1.214350
 C         2.704813        -1.484020        -1.590347
 C         2.047894        -1.416910        -0.148419
 O         1.643559        -2.447226         0.615240
 C         3.242567        -0.559904         0.393498
 O         2.361205         0.378420         1.103151
 H         0.060005        -0.094499         1.560906
 H        -0.143686         1.465113         0.705641
 H        -0.818890        -0.104878        -0.117704
 H         1.576680         0.762066        -2.271334
 H         2.159460         1.854326        -1.066900
 H         4.283349         0.029535        -1.787648
 H         1.972594        -1.549725        -2.357394
 H         3.469236        -2.312305        -1.446245
 H         1.536858        -3.164371         0.012077
 H         4.106458        -0.613005         1.059948
