19
Iteration:  1364
 C        -0.030140         0.203957         0.531768
 C         1.409913         0.014925        -0.052030
 C         2.102699         0.824397        -1.265241
 C         3.287174        -0.157272        -1.203208
 C         2.645404        -1.489307        -1.529589
 C         2.122441        -1.390432        -0.085333
 O         1.455357        -2.419072         0.650891
 C         3.357597        -0.451682         0.377773
 O         2.489155         0.378941         1.092789
 H        -0.291300        -0.432340         1.403426
 H        -0.227784         1.149579         1.088111
 H        -0.777944        -0.026409        -0.370423
 H         1.423088         0.862182        -2.160586
 H         2.290780         1.879322        -1.027461
 H         4.256942        -0.042849        -1.720253
 H         1.995989        -1.397547        -2.422988
 H         3.368139        -2.303932        -1.716105
 H         1.754122        -3.193399         0.156872
 H         4.290230        -0.670157         0.927049
