19
Iteration:  4995charge 0 multiplicity 1
 C        -0.011508         0.453578         0.418222
 C         1.442882         0.058505         0.110872
 C         2.102300         0.828780        -1.076611
 C         3.355072        -0.134654        -1.170038
 C         2.717569        -1.509043        -1.615885
 C         2.019725        -1.313307        -0.140454
 O         1.548948        -2.541351         0.442051
 C         3.274885        -0.574408         0.357048
 O         2.385728         0.231971         1.124388
 H        -0.184873         0.390274         1.507945
 H        -0.315495         1.385107        -0.060806
 H        -0.535164        -0.336571         0.055832
 H         1.453378         0.690328        -1.894932
 H         2.390328         1.808398        -0.715241
 H         4.272456         0.374046        -1.597273
 H         2.032537        -1.660411        -2.481946
 H         3.460055        -2.319064        -1.358728
 H         1.460185        -2.301590         1.345810
 H         4.135437        -0.969201         0.871391
