19
Iteration:  4059charge 0 multiplicity 1
 C        -0.106988         0.195761         0.264371
 C         1.444236         0.042006         0.060740
 C         2.073953         0.777631        -1.194671
 C         3.447643        -0.066440        -1.098073
 C         2.847325        -1.533787        -1.513542
 C         2.098139        -1.428135        -0.109424
 O         1.439202        -2.413065         0.581333
 C         3.268740        -0.499581         0.407669
 O         2.330948         0.413713         1.141250
 H        -0.363757        -0.006347         1.323729
 H        -0.644757         1.199217        -0.086364
 H        -0.731334        -0.557046        -0.447518
 H         1.622354         0.876204        -2.185754
 H         2.094039         1.882638        -0.913955
 H         4.349859         0.368123        -1.485305
 H         2.303801        -1.656126        -2.461566
 H         3.716450        -2.337039        -1.448773
 H         2.122709        -2.968495         0.991397
 H         4.260025        -0.824052         0.695077
