19
Iteration:  4127
 C        -0.088050         0.203245         0.266251
 C         1.400383         0.020902        -0.033312
 C         2.009966         0.664175        -1.202781
 C         3.368988        -0.031918        -1.115916
 C         2.899437        -1.530282        -1.385538
 C         2.146599        -1.368049        -0.100676
 O         1.468192        -2.387304         0.563311
 C         3.256113        -0.544998         0.477300
 O         2.403689         0.476492         1.085417
 H        -0.341390        -0.773132         0.855389
 H        -0.275132         1.098670         0.907338
 H        -0.655575         0.459972        -0.644486
 H         1.445440         0.689124        -2.164152
 H         2.071725         1.729132        -0.794482
 H         4.299954         0.326503        -1.653713
 H         2.258556        -1.836548        -2.276314
 H         3.666080        -2.359043        -1.274167
 H         1.540568        -3.099647        -0.013730
 H         4.053013        -0.777073         1.159905
