19
Iteration:  1150
 C        -0.078910         0.362970         0.417342
 C         1.406080        -0.022708         0.053845
 C         1.992986         0.727229        -1.221145
 C         3.337293        -0.056612        -1.256553
 C         2.722370        -1.500128        -1.498797
 C         2.166108        -1.412901        -0.071949
 O         1.528489        -2.506034         0.601405
 C         3.313638        -0.503514         0.353279
 O         2.434896         0.413552         1.126879
 H        -0.338718        -0.137944         1.427909
 H        -0.190381         1.471932         0.694916
 H        -0.716859        -0.025719        -0.354422
 H         1.342360         0.667654        -2.048493
 H         2.105846         1.819654        -1.044259
 H         4.237089         0.234257        -1.731855
 H         1.899446        -1.378728        -2.277613
 H         3.568814        -2.295589        -1.525345
 H         2.082202        -3.308186         0.319222
 H         4.216176        -0.865576         0.919558
