19
Iteration:  4627
 C        -0.019552         0.493391         0.322488
 C         1.374299         0.041440         0.040179
 C         2.012806         0.728222        -1.159440
 C         3.317468        -0.103577        -1.174282
 C         2.811958        -1.507801        -1.415371
 C         2.100394        -1.414058        -0.086135
 O         1.675740        -2.582987         0.448902
 C         3.208200        -0.559554         0.512921
 O         2.375718         0.381970         1.058068
 H        -0.590731        -0.410579         0.679364
 H         0.015488         1.119895         1.215270
 H        -0.538249         0.935360        -0.477642
 H         1.433591         0.545271        -2.057610
 H         2.159760         1.793825        -1.088935
 H         4.345180         0.207130        -1.513942
 H         2.182623        -1.650600        -2.214184
 H         3.658514        -2.175999        -1.304239
 H         0.667520        -2.528268         0.552739
 H         4.117628        -0.929172         0.951922
