19
Iteration:  4991
 C        -0.016633         0.485609         0.422710
 C         1.392167         0.051819         0.119583
 C         2.091550         0.847532        -1.087369
 C         3.372217        -0.115054        -1.175251
 C         2.735343        -1.518335        -1.633951
 C         2.006503        -1.385373        -0.141449
 O         1.547955        -2.542342         0.449737
 C         3.298401        -0.586493         0.355287
 O         2.394801         0.243598         1.138815
 H        -0.130586         0.373735         1.500918
 H        -0.186298         1.418049        -0.141669
 H        -0.614714        -0.422461         0.037466
 H         1.417752         0.844590        -1.959764
 H         2.301285         1.902444        -0.806327
 H         4.236946         0.309236        -1.557030
 H         2.098590        -1.550609        -2.528712
 H         3.406807        -2.320189        -1.367189
 H         1.665899        -2.257671         1.427219
 H         4.099641        -1.050197         0.997275
