19
Iteration:  2419
 C        -0.025412         0.196467         0.473731
 C         1.354487         0.047729        -0.028264
 C         2.088508         0.790715        -1.283602
 C         3.383042        -0.119166        -1.191554
 C         2.770604        -1.484945        -1.498059
 C         2.104874        -1.332537        -0.111514
 O         1.614808        -2.502102         0.589855
 C         3.257180        -0.537410         0.413138
 O         2.316868         0.424168         1.114170
 H        -0.118179        -0.339580         1.365500
 H        -0.172130         1.218707         0.629238
 H        -0.761617        -0.074437        -0.329955
 H         1.597135         0.493970        -2.203323
 H         2.321846         1.829895        -1.218860
 H         4.245135         0.300124        -1.571938
 H         2.196011        -1.511337        -2.410442
 H         3.340676        -2.436494        -1.591620
 H         0.976037        -2.218382         1.221866
 H         4.205976        -0.912665         0.899784
