19
Iteration:  4400charge 0 multiplicity 1
 C        -0.006807         0.091157         0.219388
 C         1.469464         0.101411         0.021717
 C         2.130892         0.799141        -1.180638
 C         3.348421        -0.077479        -1.195686
 C         2.776544        -1.470159        -1.545857
 C         2.110845        -1.409644        -0.081888
 O         1.448528        -2.462318         0.648459
 C         3.283039        -0.506608         0.449109
 O         2.355194         0.402713         1.148731
 H        -0.377471        -0.927753         0.646339
 H        -0.294719         0.770044         1.060847
 H        -0.441412         0.303159        -0.748501
 H         1.542726         0.692655        -2.068442
 H         2.488129         1.828397        -1.012385
 H         4.219802         0.365425        -1.795383
 H         2.115094        -1.560689        -2.412340
 H         3.504350        -2.411776        -1.602660
 H         0.859809        -1.964415         1.241946
 H         4.111300        -0.642532         1.047381
