19
Iteration:  3810
 C        -0.034017         0.149372         0.288071
 C         1.410194        -0.006090        -0.003905
 C         2.151764         0.850007        -1.204795
 C         3.411452        -0.101779        -1.083213
 C         2.804998        -1.505440        -1.428087
 C         2.061012        -1.387786        -0.094257
 O         1.441997        -2.435980         0.595444
 C         3.299539        -0.406703         0.433069
 O         2.293771         0.392589         1.044268
 H        -0.188169        -0.352077         1.254234
 H        -0.484968         1.172390         0.384495
 H        -0.636100        -0.577835        -0.306113
 H         1.640634         0.538882        -2.135943
 H         2.397262         1.967950        -0.985539
 H         4.140652         0.432111        -1.656063
 H         2.370667        -1.485234        -2.383343
 H         3.486375        -2.395245        -1.302129
 H         1.930624        -3.221883         0.447844
 H         4.238109        -0.643712         0.908764
