19
Iteration:  3830charge 0 multiplicity 1
 C        -0.049784         0.209537         0.294330
 C         1.361402         0.062764        -0.011980
 C         2.020716         0.729452        -1.184839
 C         3.357742        -0.039513        -1.141275
 C         2.903870        -1.533425        -1.477139
 C         2.210448        -1.392976        -0.163614
 O         1.441955        -2.390315         0.573783
 C         3.185741        -0.539204         0.499301
 O         2.348338         0.400542         1.122800
 H        -0.318213        -0.087758         1.236244
 H        -0.152852         1.303110         0.137217
 H        -0.667438        -0.448785        -0.338276
 H         1.522082         0.730442        -2.230481
 H         2.301939         1.876291        -0.901701
 H         4.304864         0.229560        -1.512121
 H         2.254696        -1.773998        -2.284124
 H         3.893216        -2.128610        -1.481082
 H         2.123069        -3.090529         0.881874
 H         4.136278        -0.894090         0.913371
