19
Iteration:  4921charge 0 multiplicity 1
 C        -0.025781         0.271916         0.457829
 C         1.493148         0.138571         0.063256
 C         2.039564         0.817167        -1.162634
 C         3.306928        -0.115996        -1.175997
 C         2.736763        -1.545819        -1.498744
 C         2.115927        -1.388687        -0.131512
 O         1.356508        -2.425098         0.473641
 C         3.306196        -0.579922         0.438680
 O         2.492983         0.364179         1.100864
 H        -0.241551        -0.563432         1.145949
 H        -0.323504         1.256164         0.834897
 H        -0.689061        -0.008086        -0.398069
 H         1.638399         0.768859        -2.265190
 H         2.320301         1.836640        -0.819602
 H         4.293623         0.313773        -1.645631
 H         2.335090        -1.509146        -2.451472
 H         3.449343        -2.299233        -1.312488
 H         1.708349        -3.310238         0.163238
 H         4.174222        -0.839052         1.008722
