19
Iteration:  1875
 C         0.022028         0.240670         0.564251
 C         1.451635         0.061513         0.046975
 C         1.978221         0.765297        -1.165299
 C         3.274951        -0.066085        -1.259988
 C         2.662664        -1.547169        -1.460510
 C         2.131324        -1.396235        -0.140637
 O         1.505406        -2.498102         0.484392
 C         3.363738        -0.488521         0.351428
 O         2.501133         0.392202         1.080668
 H        -0.059611        -0.132154         1.556956
 H        -0.268641         1.246216         0.521409
 H        -0.604215        -0.081929        -0.309119
 H         1.364547         0.607209        -2.099704
 H         2.073997         1.782317        -0.869435
 H         4.108542         0.219779        -1.893051
 H         2.078669        -1.398985        -2.387363
 H         3.418297        -2.366105        -1.556398
 H         0.824370        -2.310365         1.197508
 H         4.287173        -0.874937         0.900786
