19
Iteration:  1363
 C        -0.033569         0.207349         0.527279
 C         1.411089         0.016679        -0.041572
 C         2.100652         0.828070        -1.270510
 C         3.279246        -0.162827        -1.201632
 C         2.643386        -1.491962        -1.530701
 C         2.128568        -1.388294        -0.077065
 O         1.460846        -2.417908         0.645765
 C         3.349815        -0.448709         0.378353
 O         2.494792         0.374987         1.097284
 H        -0.286172        -0.418435         1.389690
 H        -0.239949         1.140821         1.076169
 H        -0.759782        -0.018859        -0.366883
 H         1.449061         0.855350        -2.171771
 H         2.252516         1.855950        -1.053620
 H         4.285538        -0.066297        -1.732324
 H         1.991724        -1.363506        -2.462582
 H         3.377534        -2.283463        -1.672132
 H         1.742165        -3.224247         0.137202
 H         4.282508        -0.676746         0.904603
