19
Iteration:  3151
 C        -0.025393         0.135617         0.272989
 C         1.434971        -0.030322         0.023572
 C         2.048882         0.794658        -1.197050
 C         3.375129        -0.065423        -1.215092
 C         2.833940        -1.502206        -1.397815
 C         2.047438        -1.361949        -0.141622
 O         1.417607        -2.435946         0.585832
 C         3.263302        -0.405807         0.410685
 O         2.409716         0.420511         1.119800
 H        -0.467614        -0.627627         1.018770
 H        -0.269247         1.061556         0.760019
 H        -0.540884         0.136046        -0.658036
 H         1.318396         0.496637        -1.936329
 H         2.195045         1.741304        -0.698702
 H         4.329592         0.300122        -1.745153
 H         2.396018        -1.651220        -2.319284
 H         3.719382        -2.224832        -1.312691
 H         2.163230        -2.985363         1.048673
 H         4.107338        -0.933149         0.824462
