19
Iteration:   434charge 0 multiplicity 1
 C        -0.037454         0.194960         0.383921
 C         1.352720         0.048649         0.011875
 C         2.060225         0.889907        -1.222114
 C         3.281074        -0.071845        -1.161866
 C         2.729525        -1.547492        -1.407109
 C         2.114913        -1.390646        -0.115661
 O         1.651338        -2.555281         0.514614
 C         3.305638        -0.472026         0.374272
 O         2.383362         0.392945         1.069432
 H        -0.196113        -0.429213         1.267396
 H        -0.303451         1.218754         0.561359
 H        -0.610457        -0.221484        -0.474541
 H         1.515557         1.149733        -2.156141
 H         2.343858         1.825924        -0.743807
 H         4.159252         0.226491        -1.575856
 H         1.977951        -1.781705        -2.122856
 H         3.634032        -2.260855        -1.322026
 H         0.956568        -2.464691         1.257739
 H         4.227430        -0.653653         0.937658
