19
Iteration:  4915
 C        -0.028286         0.208227         0.467301
 C         1.490437         0.137054         0.067017
 C         2.058123         0.836744        -1.172867
 C         3.362740        -0.106462        -1.136242
 C         2.767280        -1.506950        -1.477343
 C         2.101910        -1.412336        -0.149190
 O         1.306435        -2.422745         0.516199
 C         3.310722        -0.581790         0.421314
 O         2.485942         0.377121         1.071747
 H        -0.223185        -0.613343         1.155897
 H        -0.227318         1.187441         0.928395
 H        -0.467212         0.146733        -0.579339
 H         1.453382         0.904232        -2.034334
 H         2.156512         1.925546        -1.014624
 H         4.143857         0.229717        -1.738507
 H         2.227009        -1.679368        -2.505178
 H         3.560413        -2.358275        -1.467240
 H         1.587265        -3.182734         0.057025
 H         4.286481        -0.885482         0.898027
