19
Iteration:  3360
 C        -0.110304         0.255872         0.380425
 C         1.349424         0.030827         0.081702
 C         2.101964         0.745007        -1.170774
 C         3.325440        -0.088177        -1.131254
 C         2.803381        -1.539681        -1.483728
 C         2.137044        -1.416135        -0.085438
 O         1.575180        -2.531731         0.496303
 C         3.322555        -0.431274         0.364666
 O         2.360643         0.446272         1.096278
 H        -0.542861        -0.517127         0.969575
 H        -0.171666         1.252655         0.852187
 H        -0.586747         0.180031        -0.562580
 H         1.498730         0.538662        -2.055099
 H         2.389508         1.824110        -0.994412
 H         4.313449         0.225752        -1.428371
 H         2.364266        -1.626053        -2.457680
 H         3.532762        -2.432508        -1.466806
 H         0.688802        -2.400977         0.847675
 H         4.323841        -0.522726         0.689332
