19
Iteration:  4301
 C        -0.004564         0.280527         0.339386
 C         1.388233         0.010254         0.021290
 C         2.103475         0.704023        -1.227472
 C         3.355069        -0.079479        -1.119528
 C         2.858472        -1.538894        -1.395111
 C         2.072290        -1.371504        -0.127262
 O         1.463136        -2.532010         0.491090
 C         3.277072        -0.371277         0.485462
 O         2.285289         0.420569         1.114820
 H        -0.258056         0.098866         1.445847
 H         0.057423         1.392675         0.327543
 H        -0.654280        -0.251194        -0.350977
 H         1.689537         0.546584        -2.176399
 H         2.240417         1.779573        -1.105954
 H         4.204732         0.409486        -1.649687
 H         2.413053        -1.618918        -2.354031
 H         3.640339        -2.358457        -1.137031
 H         1.897210        -3.289544        -0.016998
 H         4.117963        -0.694868         0.947735
