19
Iteration:  1158charge 0 multiplicity 1
 C         0.000748         0.325957         0.477209
 C         1.402639        -0.001012         0.014058
 C         2.037162         0.717054        -1.184806
 C         3.273100        -0.080931        -1.216281
 C         2.705477        -1.486732        -1.478754
 C         2.114473        -1.379621        -0.078753
 O         1.565189        -2.472702         0.559079
 C         3.288725        -0.509552         0.376410
 O         2.400558         0.406913         1.091779
 H        -0.459309        -0.098972         1.306883
 H        -0.088419         1.389118         0.485522
 H        -0.609628         0.089669        -0.399184
 H         1.422858         0.600227        -2.127998
 H         2.203972         1.755839        -0.847473
 H         4.169752         0.233683        -1.759613
 H         2.022541        -1.812376        -2.234228
 H         3.457060        -2.285201        -1.775019
 H         2.286100        -3.182047         0.556679
 H         4.207346        -0.822612         0.817489
