19
Iteration:   937charge 0 multiplicity 1
 C        -0.015343         0.217375         0.371178
 C         1.415735        -0.017100        -0.000026
 C         2.034727         0.739524        -1.193702
 C         3.287373         0.024161        -1.186778
 C         2.779025        -1.508653        -1.436604
 C         2.176197        -1.428657        -0.053899
 O         1.434282        -2.515498         0.510948
 C         3.339470        -0.426426         0.393284
 O         2.407028         0.397661         1.072457
 H        -0.328471        -0.303347         1.275483
 H        -0.207324         1.240745         0.530170
 H        -0.662803        -0.250890        -0.408495
 H         1.415985         0.541028        -2.105246
 H         1.893513         1.816648        -1.086436
 H         4.182678         0.294046        -1.782936
 H         2.121227        -1.545822        -2.269898
 H         3.705847        -2.128760        -1.259488
 H         1.797199        -2.531693         1.444258
 H         4.347682        -0.617896         0.942598
