19
Iteration:  2084charge 0 multiplicity 1
 C        -0.051943         0.235754         0.312353
 C         1.408967         0.086292         0.109179
 C         2.022638         0.748249        -1.176685
 C         3.293150        -0.069936        -1.212070
 C         2.612752        -1.487857        -1.453390
 C         2.132562        -1.374913        -0.103578
 O         1.539130        -2.489353         0.535913
 C         3.314118        -0.508622         0.334925
 O         2.555352         0.357786         1.142701
 H        -0.345638        -0.195795         1.310521
 H        -0.171127         1.295210         0.196465
 H        -0.598794        -0.322501        -0.510133
 H         1.189054         0.531220        -1.899362
 H         2.322099         1.743122        -0.898528
 H         4.044981         0.382895        -1.820995
 H         1.969851        -1.624566        -2.444528
 H         3.444196        -2.274317        -1.340486
 H         1.549342        -2.227803         1.459353
 H         4.238244        -0.917977         0.702125
