19
Iteration:   623
 C        -0.100841         0.167896         0.499593
 C         1.410489         0.075343        -0.009261
 C         2.088084         0.686961        -1.255039
 C         3.379787        -0.103213        -1.123331
 C         2.791427        -1.478485        -1.493123
 C         2.143114        -1.371932        -0.122344
 O         1.520571        -2.492225         0.536169
 C         3.226070        -0.459916         0.416059
 O         2.358368         0.469828         1.062337
 H        -0.151009        -0.452560         1.407048
 H        -0.416495         1.244010         0.705893
 H        -0.823302        -0.170124        -0.233154
 H         1.558840         0.680767        -2.245788
 H         2.163847         1.782282        -1.084557
 H         4.280110         0.299779        -1.631165
 H         2.137745        -1.425455        -2.411699
 H         3.500218        -2.307782        -1.636619
 H         2.231586        -2.996197         0.877743
 H         4.128707        -0.659782         1.065008
