19
Iteration:  2556
 C        -0.073781         0.179787         0.369985
 C         1.446127        -0.007038         0.030467
 C         2.013147         0.693649        -1.227866
 C         3.301303        -0.065082        -1.168397
 C         2.839252        -1.522603        -1.481871
 C         2.114080        -1.356366        -0.133008
 O         1.564400        -2.417705         0.591516
 C         3.336180        -0.469342         0.445105
 O         2.350296         0.401154         1.068554
 H        -0.462956        -0.583191         1.085027
 H         0.039526         1.142327         0.996887
 H        -0.833978         0.282404        -0.327419
 H         1.537430         0.505179        -2.183687
 H         2.378782         1.746294        -1.055751
 H         4.003977         0.324091        -1.965725
 H         2.518187        -1.640997        -2.566874
 H         3.660225        -2.196582        -1.356837
 H         0.659111        -2.171345         0.982524
 H         4.087431        -0.747602         1.158421
