19
Iteration:  1258charge 0 multiplicity 1
 C        -0.054468         0.268750         0.521702
 C         1.395779         0.132094         0.044278
 C         1.961579         0.823613        -1.167689
 C         3.371698        -0.112089        -1.184018
 C         2.734679        -1.534964        -1.514544
 C         2.086956        -1.384430        -0.092305
 O         1.549113        -2.510248         0.619789
 C         3.301281        -0.549518         0.298624
 O         2.509633         0.408205         1.028915
 H        -0.123065        -0.448400         1.317471
 H        -0.348820         1.300251         0.643613
 H        -0.740739        -0.094841        -0.196766
 H         1.544761         0.576584        -2.153397
 H         2.176410         1.924984        -0.943270
 H         4.241842         0.189779        -1.685677
 H         1.997892        -1.649976        -2.341893
 H         3.537726        -2.405542        -1.457724
 H         0.904497        -2.957212         0.006497
 H         4.241294        -0.687425         0.904566
