19
Iteration:   135
 C        -0.096615         0.156605         0.285293
 C         1.414191         0.076441        -0.090552
 C         2.047948         0.891164        -1.130267
 C         3.297206        -0.084385        -1.184541
 C         2.753004        -1.562580        -1.446824
 C         2.255746        -1.470032        -0.024053
 O         1.626440        -2.580746         0.610235
 C         3.228010        -0.397884         0.487265
 O         2.337388         0.487125         1.064470
 H        -0.365945        -0.580643         1.061478
 H        -0.367198         1.200505         0.636395
 H        -0.684729         0.153575        -0.618015
 H         1.575736         1.141462        -2.158035
 H         2.326467         1.856403        -0.634826
 H         4.433952         0.011200        -1.712559
 H         1.852631        -1.841773        -2.100915
 H         3.540524        -2.307947        -1.644508
 H         1.251620        -3.041573        -0.114467
 H         4.160136        -0.570035         1.082043
