19
Iteration:  4792charge 0 multiplicity 1
 C         0.004299         0.460007         0.425585
 C         1.443525         0.057155         0.048846
 C         2.048968         0.760468        -1.130019
 C         3.391970        -0.066773        -1.149491
 C         2.770950        -1.468917        -1.526493
 C         2.040030        -1.399516        -0.152625
 O         1.622310        -2.563579         0.485719
 C         3.202204        -0.624675         0.405624
 O         2.340741         0.327599         1.121178
 H        -0.282671         0.134019         1.458841
 H        -0.025561         1.571183         0.341175
 H        -0.696777        -0.057576        -0.324355
 H         1.417076         0.643686        -2.008505
 H         2.321794         1.815876        -1.006874
 H         4.370656         0.256812        -1.685964
 H         2.176965        -1.775574        -2.550584
 H         3.615447        -2.265990        -1.364875
 H         0.759151        -2.369978         0.780462
 H         4.050217        -0.963528         0.934468
