19
Iteration:  1006
 C         0.031105         0.243476         0.403459
 C         1.404630         0.001425        -0.027229
 C         2.009497         0.773429        -1.186307
 C         3.345224        -0.087209        -1.128974
 C         2.722041        -1.506176        -1.477979
 C         2.118237        -1.444458        -0.087821
 O         1.636088        -2.452897         0.650968
 C         3.256347        -0.460732         0.383971
 O         2.328743         0.412134         1.041743
 H        -0.247560        -0.312835         1.286650
 H        -0.052966         1.328373         0.630465
 H        -0.717841        -0.045605        -0.429050
 H         1.448661         0.793880        -2.085628
 H         2.245665         1.782279        -0.988549
 H         4.243068         0.369883        -1.626076
 H         2.050066        -1.527104        -2.279276
 H         3.532778        -2.202772        -1.464732
 H         1.198473        -3.097249         0.007191
 H         4.154806        -0.839363         0.664774
