19
Iteration:  3002
 C        -0.067144         0.081460         0.429854
 C         1.363644         0.067917        -0.018690
 C         2.189457         0.800527        -1.234601
 C         3.390124        -0.083994        -1.208105
 C         2.736083        -1.507184        -1.476636
 C         2.119907        -1.321602        -0.130997
 O         1.445414        -2.485415         0.659141
 C         3.289284        -0.485202         0.398777
 O         2.344856         0.501966         1.087451
 H        -0.190488        -0.800866         1.010118
 H        -0.304342         1.154681         0.761465
 H        -0.769393        -0.184171        -0.352963
 H         1.620567         0.949466        -2.172591
 H         2.465318         1.818248        -0.807694
 H         4.420240         0.232172        -1.504783
 H         2.321850        -1.743253        -2.496370
 H         3.418059        -2.391893        -1.387488
 H         1.830815        -3.326619         0.351232
 H         4.213378        -0.751312         0.883757
