19
Iteration:  1735
 C         0.054815         0.201235         0.600538
 C         1.454045         0.032841         0.052287
 C         2.037413         0.768935        -1.157229
 C         3.272567        -0.135653        -1.256882
 C         2.658325        -1.524431        -1.635037
 C         2.099571        -1.349667        -0.171566
 O         1.421518        -2.441437         0.546863
 C         3.316074        -0.490548         0.359814
 O         2.493478         0.416483         1.097113
 H        -0.025359        -0.388831         1.520696
 H        -0.229680         1.202877         0.924639
 H        -0.673030         0.130550        -0.261386
 H         1.536997         0.771795        -2.216838
 H         2.269231         1.801937        -0.934762
 H         4.211684         0.118489        -1.629303
 H         1.799005        -1.591708        -2.312431
 H         3.379613        -2.251988        -1.719938
 H         2.089783        -2.732638         1.203310
 H         4.219688        -0.858829         0.954362
