19
Iteration:  1868
 C        -0.019075         0.245521         0.596746
 C         1.461770         0.088531         0.064821
 C         2.017549         0.713641        -1.201193
 C         3.301717        -0.066086        -1.244528
 C         2.648422        -1.577202        -1.556282
 C         2.095989        -1.368346        -0.055866
 O         1.542964        -2.512637         0.464095
 C         3.290905        -0.470595         0.363727
 O         2.539067         0.424205         1.076537
 H        -0.295731        -0.271705         1.589836
 H        -0.297583         1.376401         0.637942
 H        -0.800690        -0.250585        -0.083063
 H         1.481239         0.622565        -2.205357
 H         2.313948         1.781094        -0.836366
 H         4.266329         0.315596        -1.718084
 H         2.005571        -1.638220        -2.455137
 H         3.420410        -2.299026        -1.584827
 H         0.714665        -2.374898         0.926547
 H         4.256767        -0.799717         0.806013
