19
Iteration:  4506
 C        -0.038357         0.395836         0.302070
 C         1.410687         0.085899         0.039884
 C         2.067724         0.726716        -1.189542
 C         3.294820        -0.092307        -1.110530
 C         2.871338        -1.506400        -1.480986
 C         2.015801        -1.420165        -0.104792
 O         1.527563        -2.596158         0.578655
 C         3.277392        -0.509502         0.385809
 O         2.401876         0.430406         1.158448
 H        -0.282394         0.316226         1.361470
 H        -0.451783         1.318216        -0.203026
 H        -0.624323        -0.397605        -0.149487
 H         1.454797         0.540483        -2.133746
 H         2.253187         1.882452        -1.049351
 H         4.198558         0.405558        -1.481775
 H         2.373277        -1.495014        -2.447403
 H         3.706875        -2.257948        -1.393970
 H         1.450924        -3.274792        -0.126517
 H         4.190978        -0.714479         1.078254
