19
Iteration:    67
 C        -0.017343         0.233284         0.381909
 C         1.354512        -0.067955         0.028580
 C         2.001002         0.715697        -1.227677
 C         3.386052        -0.019112        -1.193135
 C         2.987687        -1.464633        -1.481671
 C         2.159179        -1.434382        -0.147297
 O         1.513475        -2.466900         0.660879
 C         3.249354        -0.373834         0.327634
 O         2.292485         0.297340         1.129900
 H        -0.315648        -0.087040         1.404287
 H        -0.295868         1.288610         0.314959
 H        -0.683647        -0.154266        -0.320894
 H         1.397859         0.713192        -2.145814
 H         2.011302         1.739924        -0.851616
 H         4.364051         0.507316        -1.535853
 H         2.492940        -1.662805        -2.462459
 H         3.904035        -2.017072        -1.383008
 H         0.543473        -2.288112         0.609074
 H         4.177708        -0.571714         0.803743
