19
Iteration:    86charge 0 multiplicity 1
 C        -0.104140         0.226095         0.328671
 C         1.417286         0.034671        -0.008724
 C         1.965803         0.730886        -1.230036
 C         3.300956        -0.010515        -1.098476
 C         2.924164        -1.502990        -1.588036
 C         2.167501        -1.382624        -0.150414
 O         1.676293        -2.336972         0.613659
 C         3.262263        -0.583520         0.511934
 O         2.305051         0.309605         1.134135
 H        -0.200884        -0.219065         1.302770
 H        -0.376523         1.257080         0.444929
 H        -0.822081        -0.144456        -0.460810
 H         1.488152         0.246460        -1.990841
 H         1.968562         1.787214        -1.363912
 H         4.051788         0.443048        -1.555616
 H         2.438570        -1.628203        -2.524796
 H         3.750263        -2.236327        -1.367406
 H         0.658387        -2.275954         0.681866
 H         4.079712        -1.100534         1.036036
