19
Iteration:  2164charge 0 multiplicity 1
 C         0.010768         0.288474         0.464698
 C         1.386407         0.080173         0.070792
 C         1.986352         0.703219        -1.212222
 C         3.287106        -0.150067        -1.188380
 C         2.831531        -1.542033        -1.507387
 C         2.130383        -1.401011        -0.052181
 O         1.427740        -2.435201         0.500495
 C         3.297658        -0.496280         0.352738
 O         2.462368         0.402991         1.085467
 H        -0.342978        -0.513692         1.182570
 H        -0.019784         1.241226         1.054840
 H        -0.615230         0.402441        -0.376980
 H         1.301155         0.600208        -2.060907
 H         1.872879         1.814102        -1.041955
 H         4.190314         0.364202        -1.685107
 H         2.074101        -1.688780        -2.391285
 H         3.729547        -2.196232        -1.689775
 H         2.040424        -2.953757         1.073868
 H         4.296963        -0.511739         0.761801
