19
Iteration:  3855
 C        -0.073595         0.303914         0.280252
 C         1.362416         0.057480         0.035535
 C         1.993987         0.674456        -1.187457
 C         3.427798        -0.075458        -1.102439
 C         2.880031        -1.485231        -1.500656
 C         2.116569        -1.359952        -0.110996
 O         1.468086        -2.494305         0.535514
 C         3.328208        -0.454031         0.414627
 O         2.306296         0.359899         1.114108
 H        -0.446365        -0.110925         1.297937
 H        -0.207148         1.391278         0.234281
 H        -0.670507        -0.268516        -0.435692
 H         1.517798         0.462535        -2.162838
 H         2.001492         1.786488        -0.914229
 H         4.463717         0.161492        -1.479734
 H         2.468771        -1.640501        -2.500161
 H         3.683477        -2.188188        -1.290667
 H         2.107551        -2.834443         1.177811
 H         4.191867        -0.708489         1.071828
