19
Iteration:   499charge 0 multiplicity 1
 C         0.011833         0.232572         0.487841
 C         1.399001         0.044419        -0.056187
 C         1.999983         0.779982        -1.258443
 C         3.341289        -0.089519        -1.179871
 C         2.836897        -1.522807        -1.517200
 C         2.093971        -1.419727        -0.143422
 O         1.601080        -2.493024         0.540651
 C         3.248705        -0.481310         0.478921
 O         2.295031         0.388394         1.071811
 H        -0.216476        -0.329536         1.405458
 H        -0.022793         1.271983         0.740638
 H        -0.824068        -0.127318        -0.136982
 H         1.417763         0.710909        -2.154514
 H         2.280427         1.708860        -0.910721
 H         4.189009         0.276127        -1.652178
 H         2.301289        -1.559204        -2.443650
 H         3.767430        -2.157738        -1.525936
 H         1.342936        -2.209870         1.409899
 H         4.179027        -0.605190         1.061661
