19
Iteration:  4271
 C        -0.127638         0.100751         0.352558
 C         1.393155         0.138745        -0.032351
 C         2.143079         0.808561        -1.188592
 C         3.361352        -0.112707        -1.055125
 C         2.865466        -1.524415        -1.476634
 C         2.144773        -1.371304        -0.105275
 O         1.421076        -2.404258         0.565946
 C         3.217330        -0.532052         0.508196
 O         2.393891         0.442589         1.019647
 H        -0.228221        -0.206057         1.427811
 H        -0.535074         1.032674         0.021316
 H        -0.611614        -0.705620        -0.147609
 H         1.846378         0.741108        -2.237709
 H         2.415421         1.854752        -1.092876
 H         4.303299         0.269666        -1.593828
 H         2.217024        -1.342017        -2.334448
 H         3.621893        -2.221813        -1.566341
 H         1.780150        -3.308619         0.417184
 H         4.108765        -0.974969         1.049083
