19
Iteration:  4105charge 0 multiplicity 1
 C        -0.060880         0.056983         0.288253
 C         1.446787         0.101030         0.027335
 C         2.154176         0.824120        -1.224241
 C         3.353830        -0.132894        -1.108147
 C         2.806682        -1.501483        -1.429579
 C         2.129447        -1.422906        -0.125256
 O         1.425439        -2.445582         0.632387
 C         3.309628        -0.394450         0.405865
 O         2.297461         0.457196         1.118430
 H        -0.348002        -0.723712         1.095215
 H        -0.320235         1.111972         0.612886
 H        -0.600086         0.129094        -0.690215
 H         1.650471         0.627061        -2.199725
 H         2.479517         1.921548        -1.282970
 H         4.404082         0.020529        -1.506226
 H         2.236060        -1.489896        -2.413543
 H         3.537494        -2.392921        -1.489903
 H         1.555707        -3.306041         0.077931
 H         4.090543        -0.606369         1.124879
