19
Iteration:  4255
 C        -0.042034         0.046641         0.275849
 C         1.409642        -0.033467        -0.002906
 C         2.182403         0.788443        -1.179215
 C         3.472760        -0.078931        -1.112064
 C         2.785712        -1.417978        -1.504491
 C         2.041679        -1.405798        -0.134362
 O         1.336993        -2.352735         0.623726
 C         3.300322        -0.472394         0.397316
 O         2.362340         0.444026         1.110958
 H        -0.185461        -0.024244         1.345692
 H        -0.488899         1.071998         0.109552
 H        -0.486929        -0.863027        -0.256423
 H         1.616409         0.767977        -2.145654
 H         2.084128         1.817782        -0.770182
 H         4.423146         0.284344        -1.371076
 H         2.237926        -1.632628        -2.455494
 H         3.545009        -2.292240        -1.304963
 H         2.014083        -3.126125         0.564446
 H         4.171341        -0.739430         0.989859
