19
Iteration:   278charge 0 multiplicity 1
 C        -0.082307         0.223085         0.343237
 C         1.362645        -0.053176         0.052789
 C         2.046572         0.826025        -1.170656
 C         3.272333        -0.075760        -1.232680
 C         2.871036        -1.500829        -1.459761
 C         2.153241        -1.416899        -0.172658
 O         1.629906        -2.437665         0.654822
 C         3.294015        -0.385341         0.341613
 O         2.322783         0.256132         1.131485
 H        -0.371103        -0.087928         1.335955
 H         0.029578         1.312057         0.371155
 H        -0.753851        -0.094328        -0.496197
 H         1.343938         0.842412        -2.016419
 H         2.115753         1.840293        -0.809697
 H         4.387439         0.270612        -1.612293
 H         2.202327        -1.715545        -2.360703
 H         3.736357        -2.184878        -1.539340
 H         0.704815        -2.337615         0.699742
 H         4.289733        -0.521130         0.769810
