19
Iteration:  4228
 C        -0.091820         0.140685         0.216379
 C         1.426142         0.054718         0.035495
 C         2.117100         0.796494        -1.239832
 C         3.297615        -0.062527        -1.149252
 C         2.797709        -1.508613        -1.496942
 C         2.239657        -1.466171        -0.106138
 O         1.415482        -2.292573         0.537490
 C         3.289284        -0.523789         0.525036
 O         2.371736         0.339050         1.160173
 H        -0.437167        -0.252553         1.237896
 H        -0.356418         1.163618         0.040428
 H        -0.501221        -0.535388        -0.478181
 H         1.313697         0.839699        -2.051168
 H         2.328184         1.862965        -1.035746
 H         4.231440         0.490734        -1.537203
 H         2.073738        -1.739287        -2.349014
 H         3.574583        -2.221064        -1.377669
 H         1.970887        -2.932618         1.124400
 H         4.229300        -0.751355         1.187976
