19
Iteration:  2400charge 0 multiplicity 1
 C        -0.011665         0.189586         0.379307
 C         1.478969         0.037056         0.010771
 C         2.043388         0.767649        -1.172057
 C         3.276595        -0.076688        -1.177041
 C         2.733525        -1.534029        -1.492273
 C         2.114264        -1.435966        -0.078499
 O         1.584543        -2.483527         0.588324
 C         3.265034        -0.430007         0.437746
 O         2.416745         0.448149         1.030929
 H        -0.226346        -0.625905         1.131860
 H        -0.295540         1.127644         0.831932
 H        -0.682413         0.190669        -0.464502
 H         1.492630         0.707344        -2.140192
 H         2.197059         1.788444        -0.819371
 H         4.246675         0.120322        -1.645262
 H         2.083303        -1.799953        -2.308404
 H         3.581918        -2.276291        -1.629996
 H         0.659600        -2.293864         0.498972
 H         4.064319        -0.748704         1.083133
