19
Iteration:   329
 C        -0.007597         0.169573         0.420141
 C         1.368548         0.091026         0.021918
 C         2.053580         0.727049        -1.295057
 C         3.393759        -0.031773        -1.097772
 C         2.720298        -1.476777        -1.444320
 C         2.070733        -1.354260        -0.079084
 O         1.633343        -2.590906         0.600739
 C         3.294683        -0.460575         0.413578
 O         2.351903         0.480569         1.038434
 H        -0.232055        -0.648214         1.184813
 H        -0.299405         1.176562         0.874588
 H        -0.515367        -0.146975        -0.453463
 H         1.594395         0.467323        -2.226191
 H         1.953801         1.833876        -1.136455
 H         4.323421         0.480535        -1.446300
 H         2.167844        -1.391614        -2.448373
 H         3.303096        -2.370852        -1.493821
 H         0.963253        -2.940763        -0.037475
 H         4.189619        -0.827960         1.029891
