19
Iteration:  4161charge 0 multiplicity 1
 C        -0.092510         0.380099         0.342369
 C         1.380552         0.107355        -0.034697
 C         2.056011         0.656015        -1.266520
 C         3.406354        -0.052807        -1.158655
 C         2.930280        -1.509769        -1.417842
 C         2.134078        -1.455172        -0.123068
 O         1.496065        -2.529549         0.596873
 C         3.257341        -0.430497         0.470402
 O         2.257788         0.386920         1.097499
 H        -0.470150        -0.572721         0.928419
 H        -0.122811         1.099635         1.141694
 H        -0.851978         0.506663        -0.347978
 H         1.664511         0.561489        -2.341093
 H         2.329560         1.733314        -1.105555
 H         4.418350         0.398495        -1.521239
 H         2.281624        -1.602701        -2.374771
 H         3.716168        -2.287345        -1.332193
 H         1.906256        -3.370769         0.325143
 H         4.127781        -0.690502         1.116885
