19
Iteration:  4810charge 0 multiplicity 1
 C         0.019008         0.537780         0.357453
 C         1.369937         0.053597         0.071119
 C         2.053578         0.764221        -1.208885
 C         3.281612        -0.139913        -1.162249
 C         2.757724        -1.497217        -1.515598
 C         2.064507        -1.430663        -0.167998
 O         1.651139        -2.610590         0.506528
 C         3.310644        -0.487852         0.431538
 O         2.366607         0.283412         1.208492
 H        -0.480130         0.049423         1.221416
 H         0.127781         1.623172         0.593308
 H        -0.651633         0.421342        -0.434227
 H         1.562867         0.494275        -2.157879
 H         2.106782         1.793945        -0.913783
 H         4.214476         0.339329        -1.471290
 H         2.140536        -1.414962        -2.341253
 H         3.442917        -2.264848        -1.586274
 H         0.727942        -2.707358         0.349897
 H         4.181991        -0.877303         0.980402
