19
Iteration:  1772charge 0 multiplicity 1
 C         0.016975         0.280538         0.457793
 C         1.429401         0.091558         0.079158
 C         2.004276         0.840509        -1.192800
 C         3.256962        -0.112498        -1.212832
 C         2.563770        -1.471218        -1.520924
 C         2.065315        -1.377750        -0.089600
 O         1.536425        -2.495719         0.627531
 C         3.330153        -0.544815         0.318372
 O         2.561379         0.354895         1.077158
 H        -0.401895        -0.584476         0.958479
 H         0.052305         1.283391         0.927947
 H        -0.617264         0.164713        -0.348023
 H         1.482149         0.711578        -2.092597
 H         2.237691         1.874125        -0.786045
 H         4.215397         0.151686        -1.825504
 H         1.702311        -1.738195        -2.252413
 H         3.458100        -2.258188        -1.748753
 H         2.108895        -3.109368         0.180204
 H         4.130997        -0.880637         0.988398
