19
Iteration:  2630
 C        -0.058569         0.282850         0.352812
 C         1.364707         0.126660        -0.083519
 C         2.051993         0.824089        -1.222010
 C         3.332595        -0.176778        -1.083177
 C         2.750174        -1.526577        -1.531385
 C         2.196551        -1.417630        -0.140582
 O         1.625086        -2.484653         0.644947
 C         3.185574        -0.497527         0.419700
 O         2.310917         0.381031         1.099115
 H        -0.228977        -0.264678         1.345576
 H        -0.238429         1.409031         0.348137
 H        -0.751867        -0.134987        -0.345300
 H         1.569620         0.611536        -2.197010
 H         2.224422         1.899592        -0.918132
 H         4.311971         0.422335        -1.393133
 H         2.235858        -1.834379        -2.463399
 H         3.562163        -2.340828        -1.495891
 H         2.283899        -3.028058         1.114485
 H         4.107391        -0.628253         0.898648
