19
Iteration:   999charge 0 multiplicity 1
 C         0.019562         0.239406         0.435456
 C         1.413478        -0.015591         0.009616
 C         2.040750         0.834669        -1.240548
 C         3.330661        -0.076782        -1.112231
 C         2.753060        -1.534906        -1.460819
 C         2.096056        -1.380467        -0.078992
 O         1.663090        -2.479507         0.647298
 C         3.233419        -0.483932         0.332571
 O         2.323984         0.407214         1.033420
 H        -0.205838        -0.448093         1.352074
 H        -0.163942         1.377777         0.517490
 H        -0.665907        -0.004962        -0.368112
 H         1.434277         0.626121        -2.170992
 H         2.032371         1.952278        -0.924987
 H         4.281071         0.188736        -1.476141
 H         2.208993        -1.466696        -2.516077
 H         3.354700        -2.468808        -1.511128
 H         0.989808        -2.936164         0.039762
 H         4.237678        -0.816650         0.893540
