19
Iteration:  1999charge 0 multiplicity 1
 C        -0.000267         0.332115         0.551457
 C         1.473223         0.048217         0.041606
 C         1.995737         0.714083        -1.191731
 C         3.299542        -0.113475        -1.216362
 C         2.837003        -1.541143        -1.573502
 C         2.053352        -1.382193        -0.122237
 O         1.566870        -2.454933         0.582751
 C         3.211353        -0.534022         0.362247
 O         2.462737         0.454602         1.093423
 H        -0.130225        -0.551754         1.266375
 H        -0.261496         1.141043         1.187921
 H        -0.720589         0.122327        -0.189452
 H         1.206441         0.518850        -1.944972
 H         2.049565         1.806159        -1.317957
 H         4.107531         0.336523        -1.737203
 H         2.519925        -1.765634        -2.580952
 H         3.495401        -2.323168        -1.306644
 H         0.697946        -2.776838         0.156707
 H         4.066641        -0.945405         0.773818
