19
Iteration:  2735
 C        -0.082099         0.290706         0.445495
 C         1.403609        -0.008147         0.001394
 C         2.048931         0.729113        -1.248920
 C         3.394207        -0.064971        -1.164476
 C         2.853497        -1.500048        -1.518736
 C         2.172761        -1.398851        -0.087530
 O         1.498199        -2.408501         0.594447
 C         3.231228        -0.517299         0.471514
 O         2.321941         0.380542         1.007869
 H        -0.318294        -0.413354         1.325131
 H        -0.261528         1.261168         0.838301
 H        -0.839988        -0.087164        -0.389858
 H         1.328291         0.588589        -2.135766
 H         1.932830         1.810167        -1.141428
 H         4.442997         0.325354        -1.490448
 H         2.152524        -1.603031        -2.352150
 H         3.787462        -2.161016        -1.492885
 H         2.099213        -3.197778         0.673019
 H         4.219075        -0.604754         1.082894
