19
Iteration:  2469
 C        -0.019197         0.317259         0.305259
 C         1.402537         0.044652         0.110236
 C         2.007166         0.739078        -1.202234
 C         3.284666        -0.053369        -1.218843
 C         2.795504        -1.513648        -1.421092
 C         2.170216        -1.442952        -0.098741
 O         1.479049        -2.528397         0.569598
 C         3.236722        -0.445093         0.373778
 O         2.428001         0.392628         1.103180
 H        -0.161501         0.115698         1.400199
 H        -0.374542         1.350984        -0.069175
 H        -0.578810        -0.357588        -0.345182
 H         1.267380         0.743711        -2.015473
 H         2.215995         1.743704        -0.711826
 H         4.215544         0.347153        -1.751226
 H         2.245074        -1.835470        -2.347810
 H         3.699963        -2.054380        -1.538846
 H         2.171777        -3.180750         0.912689
 H         4.184268        -0.618972         0.865307
