19
Iteration:  1075charge 0 multiplicity 1
 C        -0.018646         0.148096         0.507691
 C         1.420473         0.104789         0.015093
 C         2.021613         0.757628        -1.243935
 C         3.357186        -0.100330        -1.184601
 C         2.796271        -1.475405        -1.573053
 C         2.156086        -1.438576        -0.102749
 O         1.519141        -2.501275         0.568217
 C         3.254175        -0.523459         0.366662
 O         2.369871         0.443229         1.057156
 H        -0.303403        -0.584757         1.414002
 H        -0.129149         1.327175         0.637436
 H        -0.746608         0.000164        -0.301857
 H         1.511476         0.848090        -2.185265
 H         2.230246         1.825975        -0.968614
 H         4.304219         0.219074        -1.531924
 H         1.881792        -1.423009        -2.207026
 H         3.493220        -2.221079        -1.483619
 H         1.508207        -2.113275         1.457678
 H         4.116109        -0.794309         1.074079
