19
Iteration:  2081
 C        -0.065934         0.238411         0.321604
 C         1.436588         0.124622         0.077825
 C         2.008050         0.742822        -1.171260
 C         3.301589        -0.058913        -1.185508
 C         2.606022        -1.508389        -1.464534
 C         2.109903        -1.381858        -0.094752
 O         1.553452        -2.497194         0.536570
 C         3.312752        -0.501680         0.306275
 O         2.569088         0.345567         1.157306
 H        -0.371282        -0.221538         1.207436
 H        -0.197884         1.338339         0.155005
 H        -0.637052        -0.354607        -0.495038
 H         1.278262         0.497037        -1.938193
 H         2.250059         1.754348        -0.871471
 H         4.009541         0.454228        -1.918156
 H         1.964442        -1.656973        -2.293558
 H         3.470409        -2.186699        -1.319348
 H         1.414846        -2.245697         1.459682
 H         4.292836        -0.980927         0.777034
