19
Iteration:  4597charge 0 multiplicity 1
 C        -0.030997         0.250908         0.353203
 C         1.395446         0.006553         0.037212
 C         2.121049         0.773015        -1.153781
 C         3.395387        -0.095621        -1.162631
 C         2.833925        -1.532837        -1.505767
 C         2.099547        -1.420482        -0.158898
 O         1.438579        -2.467086         0.510505
 C         3.256905        -0.442366         0.422647
 O         2.344659         0.373833         1.131977
 H        -0.376895        -0.686506         0.820465
 H         0.031527         1.008970         1.108533
 H        -0.696217         0.529237        -0.474550
 H         1.516272         0.530648        -2.105091
 H         2.373608         1.940296        -1.048433
 H         4.431378         0.224469        -1.416486
 H         2.158962        -1.624979        -2.391602
 H         3.653417        -2.355912        -1.589139
 H         1.250864        -2.067715         1.344061
 H         4.200001        -0.647157         0.826958
