19
Iteration:  1348
 C        -0.000263         0.251564         0.442156
 C         1.449263         0.127752         0.162956
 C         2.027985         0.746794        -1.234309
 C         3.287458        -0.111541        -1.219890
 C         2.635517        -1.515592        -1.490262
 C         2.097005        -1.380860        -0.108501
 O         1.554636        -2.428869         0.580240
 C         3.278751        -0.554490         0.322059
 O         2.486244         0.418422         1.137318
 H        -0.292833        -0.495890         1.182619
 H        -0.214452         1.280825         0.693813
 H        -0.536078         0.040577        -0.400903
 H         1.512830         0.502504        -2.144365
 H         2.217603         1.827478        -1.107600
 H         4.200566         0.294110        -1.717200
 H         1.924200        -1.766794        -2.353421
 H         3.378709        -2.347520        -1.586368
 H         1.554004        -3.208871         0.060497
 H         4.230480        -0.880919         0.752801
