19
Iteration:  2561charge 0 multiplicity 1
 C        -0.041322         0.193796         0.374838
 C         1.455623         0.013840         0.022099
 C         1.962776         0.672447        -1.225388
 C         3.349677        -0.049247        -1.166512
 C         2.818321        -1.475105        -1.499164
 C         2.154764        -1.387960        -0.093187
 O         1.549184        -2.435093         0.575888
 C         3.284694        -0.463324         0.422152
 O         2.355674         0.387706         1.083855
 H        -0.467080        -0.528101         1.064016
 H        -0.047769         1.129152         0.867177
 H        -0.781213         0.459026        -0.502431
 H         1.438674         0.333836        -2.144432
 H         2.249149         1.700298        -1.162599
 H         4.184369         0.226021        -1.796517
 H         2.445871        -1.646013        -2.487402
 H         3.635932        -2.240294        -1.312502
 H         0.828246        -2.209616         1.126662
 H         4.159713        -0.687252         1.114751
