19
Iteration:  2770charge 0 multiplicity 1
 C        -0.069378         0.364258         0.308987
 C         1.416771         0.018065         0.075666
 C         1.966331         0.745181        -1.176404
 C         3.314225        -0.052157        -1.197315
 C         2.859844        -1.544303        -1.449101
 C         2.121001        -1.434936        -0.102601
 O         1.567490        -2.475824         0.540720
 C         3.244651        -0.484778         0.391275
 O         2.366097         0.358677         1.093573
 H        -0.580807        -0.323097         1.064034
 H        -0.202371         1.437421         0.560524
 H        -0.682086         0.266000        -0.651466
 H         1.225261         0.549339        -1.960490
 H         2.007324         1.758369        -0.753802
 H         4.315363         0.384709        -1.517162
 H         2.396216        -1.934830        -2.333269
 H         3.778417        -2.260450        -1.379755
 H         2.287353        -2.809761         1.151565
 H         4.207235        -0.696917         0.803835
