19
Iteration:  3041
 C         0.039197         0.209257         0.408202
 C         1.443800         0.004422        -0.044479
 C         1.965610         0.722886        -1.181986
 C         3.374562        -0.079314        -1.096847
 C         2.826613        -1.493509        -1.450942
 C         2.080973        -1.388547        -0.112676
 O         1.532107        -2.417113         0.550876
 C         3.279554        -0.483587         0.437087
 O         2.370160         0.429062         1.064953
 H        -0.338035        -0.237065         1.433884
 H        -0.203458         1.249766         0.382781
 H        -0.578063        -0.217480        -0.466003
 H         1.344151         0.517885        -2.078813
 H         1.930225         1.821440        -1.194793
 H         4.243480         0.482812        -1.428573
 H         2.192203        -1.789226        -2.233450
 H         3.614977        -2.259402        -1.191773
 H         0.963392        -2.868858        -0.086388
 H         4.210978        -0.951692         0.855033
