19
Iteration:  3225charge 0 multiplicity 1
 C        -0.060231         0.257902         0.318206
 C         1.410840         0.115524         0.018388
 C         1.959561         0.791593        -1.212545
 C         3.324652        -0.042981        -1.124660
 C         2.870583        -1.558672        -1.438716
 C         2.166276        -1.434546        -0.090857
 O         1.509053        -2.535167         0.540932
 C         3.267435        -0.491151         0.459298
 O         2.372977         0.435768         1.085495
 H        -0.229965        -0.091304         1.367170
 H        -0.294386         1.278571         0.363970
 H        -0.757763        -0.186636        -0.393923
 H         1.454125         0.672724        -2.196910
 H         2.296919         1.786292        -1.012368
 H         4.321683         0.397001        -1.454391
 H         2.122276        -1.828537        -2.301875
 H         3.677952        -2.280859        -1.324655
 H         1.715782        -3.333407         0.118037
 H         4.242797        -0.638642         1.007121
