19
Iteration:   178charge 0 multiplicity 1
 C        -0.152139         0.218805         0.397793
 C         1.354013        -0.044065         0.026382
 C         1.976236         0.679659        -1.221930
 C         3.436405        -0.034688        -1.126622
 C         2.968368        -1.457546        -1.508205
 C         2.100213        -1.373175        -0.170954
 O         1.478083        -2.372762         0.624819
 C         3.225854        -0.507623         0.369732
 O         2.399613         0.370535         1.105203
 H        -0.326445        -0.445609         1.255421
 H        -0.212099         1.293736         0.675476
 H        -0.670593         0.070419        -0.492883
 H         1.438475         0.313211        -2.095699
 H         1.945363         1.774089        -1.215126
 H         4.383246         0.635842        -1.529196
 H         2.520446        -1.331747        -2.542567
 H         3.667455        -2.264520        -1.392394
 H         2.127425        -3.056011         0.860941
 H         4.104383        -0.894155         0.945148
