19
Iteration:  3053
 C        -0.027094         0.269933         0.342918
 C         1.392190         0.023295         0.087946
 C         1.984005         0.720114        -1.228469
 C         3.309204        -0.038543        -1.156969
 C         2.888050        -1.518605        -1.427321
 C         2.114528        -1.373627        -0.132864
 O         1.532803        -2.500356         0.565557
 C         3.236220        -0.471400         0.387061
 O         2.432600         0.409495         1.124427
 H        -0.271890        -0.155172         1.420295
 H        -0.206655         1.362238         0.382134
 H        -0.674397        -0.213772        -0.424009
 H         1.523891         0.347011        -2.147145
 H         2.047992         1.808544        -0.966431
 H         4.217694         0.227164        -1.732414
 H         2.528227        -1.609788        -2.420082
 H         3.776079        -2.251008        -1.311645
 H         0.711111        -2.839694         0.040611
 H         4.074590        -0.720064         0.998965
