19
Iteration:  1752charge 0 multiplicity 1
 C         0.029390         0.232714         0.537218
 C         1.450859         0.084597         0.109869
 C         2.112308         0.803808        -1.167570
 C         3.303679        -0.174993        -1.252552
 C         2.540163        -1.500681        -1.545273
 C         2.134566        -1.452549        -0.082564
 O         1.511614        -2.459878         0.526022
 C         3.295309        -0.529280         0.325692
 O         2.438185         0.484461         1.077486
 H        -0.226643        -0.581291         1.217644
 H        -0.039929         1.255700         0.965487
 H        -0.696241         0.119727        -0.298722
 H         1.371617         0.729003        -1.913528
 H         2.396963         1.789433        -0.775728
 H         4.110359         0.277987        -1.897086
 H         1.895489        -1.285258        -2.414573
 H         3.232613        -2.412899        -1.804383
 H         2.011460        -3.229988         0.884166
 H         4.285987        -0.781216         0.623873
