19
Iteration:  3611charge 0 multiplicity 1
 C         0.010183         0.165594         0.347872
 C         1.402544         0.029043        -0.064579
 C         2.077641         0.758411        -1.208930
 C         3.398151        -0.066189        -1.136076
 C         2.837936        -1.476860        -1.436250
 C         2.070689        -1.335385        -0.117155
 O         1.553697        -2.452142         0.623358
 C         3.219232        -0.534441         0.439324
 O         2.295329         0.417376         1.117751
 H         0.014712        -0.267115         1.363847
 H        -0.297761         1.286152         0.390963
 H        -0.705878        -0.420996        -0.338734
 H         1.689938         0.803311        -2.223985
 H         2.353383         1.856900        -1.222995
 H         4.218889         0.299785        -1.718513
 H         2.338516        -1.596638        -2.375109
 H         3.701439        -2.183682        -1.405234
 H         0.773619        -2.860122         0.134346
 H         4.065806        -1.006572         0.997286
