19
Iteration:   813
 C        -0.019431         0.216653         0.448203
 C         1.443368         0.061015         0.035147
 C         2.039799         0.728708        -1.213015
 C         3.317448        -0.132131        -1.199093
 C         2.863698        -1.489632        -1.494519
 C         2.087982        -1.412042        -0.057146
 O         1.514834        -2.458836         0.551368
 C         3.246647        -0.476172         0.442295
 O         2.317914         0.483586         1.028968
 H        -0.075506        -0.535333         1.235240
 H        -0.409477         1.216995         0.762320
 H        -0.750476        -0.150547        -0.270752
 H         1.511822         0.749335        -2.190032
 H         2.300494         1.819231        -0.984136
 H         4.173235         0.305338        -1.675692
 H         2.196878        -1.647503        -2.406643
 H         3.624379        -2.290820        -1.471115
 H         2.168800        -3.228956         0.437067
 H         4.110218        -0.749846         1.077200
