19
Iteration:  2569charge 0 multiplicity 1
 C        -0.001749         0.245061         0.368188
 C         1.397241         0.030989         0.016841
 C         1.960426         0.670205        -1.241297
 C         3.383219        -0.071951        -1.165322
 C         2.838232        -1.465644        -1.479145
 C         2.174206        -1.413151        -0.074948
 O         1.545159        -2.481941         0.551652
 C         3.252847        -0.455800         0.401195
 O         2.361300         0.394371         1.108140
 H        -0.454654        -0.509652         0.957885
 H        -0.139302         1.199735         0.910893
 H        -0.493874         0.329457        -0.601659
 H         1.336547         0.319898        -2.052989
 H         1.804642         1.752296        -1.254914
 H         4.308378         0.292573        -1.457269
 H         2.150328        -1.643501        -2.328417
 H         3.570313        -2.210741        -1.425837
 H         1.049195        -2.092608         1.275677
 H         4.251881        -0.682734         0.853714
