19
Iteration:  4728
 C        -0.021965         0.069164         0.349543
 C         1.462756         0.118604         0.004247
 C         2.061614         0.805416        -1.173137
 C         3.388179        -0.173694        -1.112085
 C         2.726857        -1.480910        -1.483667
 C         2.108884        -1.373320        -0.158246
 O         1.290423        -2.336194         0.448663
 C         3.294070        -0.569451         0.447733
 O         2.533423         0.417798         1.190865
 H        -0.140592        -0.173845         1.387566
 H        -0.462572         1.036329         0.165617
 H        -0.527148        -0.570294        -0.427890
 H         1.449904         0.886382        -2.092274
 H         2.200698         1.939982        -1.078558
 H         4.414412         0.158294        -1.310927
 H         1.965645        -1.576811        -2.240151
 H         3.456142        -2.336952        -1.631438
 H         1.861172        -2.853284         1.023112
 H         4.286815        -0.725716         0.821267
