19
Iteration:  3632charge 0 multiplicity 1
 C        -0.114604         0.171532         0.311371
 C         1.417410        -0.007002         0.030207
 C         2.044548         0.757251        -1.147903
 C         3.366648        -0.077562        -1.071436
 C         2.857268        -1.541418        -1.554177
 C         2.169236        -1.361035        -0.122381
 O         1.551670        -2.368888         0.589446
 C         3.274780        -0.475412         0.435542
 O         2.353792         0.377570         1.073817
 H        -0.295487        -0.172616         1.327788
 H        -0.495371         1.231289         0.192086
 H        -0.601427        -0.389581        -0.521431
 H         1.449354         0.610525        -2.113621
 H         2.316151         1.891181        -1.147151
 H         4.388252         0.127221        -1.255643
 H         2.231669        -1.592744        -2.426808
 H         3.512711        -2.424836        -1.540558
 H         0.629217        -2.378646         0.581777
 H         4.134761        -0.800808         1.061668
