19
Iteration:  1737
 C         0.046553         0.196841         0.586915
 C         1.457853         0.036184         0.063447
 C         2.039033         0.754493        -1.153764
 C         3.261881        -0.156305        -1.251821
 C         2.655629        -1.506707        -1.635196
 C         2.109827        -1.357135        -0.165749
 O         1.424511        -2.447701         0.543385
 C         3.315446        -0.487896         0.330893
 O         2.485772         0.440062         1.113192
 H        -0.060154        -0.378001         1.519636
 H        -0.187935         1.212612         0.965120
 H        -0.632880         0.141274        -0.227923
 H         1.600668         0.829897        -2.156057
 H         2.315463         1.812812        -0.962615
 H         4.266660         0.037610        -1.655473
 H         1.721169        -1.608976        -2.281764
 H         3.434664        -2.290646        -1.816587
 H         2.112124        -2.730680         1.129830
 H         4.161459        -0.822199         1.019126
