19
Iteration:  3426
 C        -0.166728         0.346767         0.351374
 C         1.437043         0.053334         0.057560
 C         2.089657         0.796361        -1.167841
 C         3.350508        -0.115967        -1.245327
 C         2.853618        -1.459339        -1.488554
 C         2.161222        -1.387191        -0.104765
 O         1.599385        -2.593637         0.535657
 C         3.233080        -0.550250         0.476008
 O         2.367932         0.377183         1.108932
 H        -0.471784        -0.006555         1.314888
 H        -0.347060         1.464243         0.381188
 H        -0.899062        -0.205598        -0.225618
 H         1.536894         0.556039        -2.047885
 H         2.105362         1.925080        -1.184591
 H         4.237410         0.345207        -1.558705
 H         2.180294        -1.803787        -2.233169
 H         3.675927        -2.270872        -1.588048
 H         0.707405        -2.221699         0.795823
 H         4.240472        -0.697511         0.833655
