19
Iteration:  3668charge 0 multiplicity 1
 C         0.019432         0.194913         0.206068
 C         1.380881         0.027290         0.012772
 C         2.024716         0.858849        -1.187502
 C         3.355359        -0.110032        -1.120466
 C         2.755539        -1.555155        -1.420655
 C         2.119697        -1.362725        -0.081916
 O         1.573487        -2.524452         0.521025
 C         3.262524        -0.469481         0.468510
 O         2.343894         0.405508         1.097395
 H        -0.421248        -0.359663         1.054859
 H        -0.184151         1.334421         0.359099
 H        -0.642937        -0.354679        -0.588376
 H         1.508703         0.725380        -2.093695
 H         2.344255         1.876032        -0.957997
 H         4.288541         0.356547        -1.434230
 H         2.159305        -1.667402        -2.298706
 H         3.666620        -2.237161        -1.425321
 H         1.315392        -2.191983         1.355381
 H         4.203676        -0.752475         0.951495
