19
Iteration:  4394
 C        -0.007487         0.117644         0.250662
 C         1.468060         0.114447        -0.003716
 C         2.124890         0.798675        -1.152765
 C         3.318252        -0.141623        -1.193883
 C         2.815713        -1.452457        -1.579167
 C         2.150488        -1.485366        -0.098027
 O         1.457008        -2.446606         0.642850
 C         3.258424        -0.504175         0.446767
 O         2.336567         0.430188         1.129223
 H        -0.353387        -0.845440         0.523935
 H        -0.311794         0.736553         1.085057
 H        -0.569216         0.266002        -0.714278
 H         1.555526         0.840914        -2.128962
 H         2.445437         1.820236        -0.952414
 H         4.243894         0.256460        -1.545917
 H         2.048162        -1.447272        -2.393679
 H         3.372432        -2.295396        -1.498133
 H         1.078630        -1.940053         1.362636
 H         4.189003        -0.663696         1.211195
