19
Iteration:  4936
 C        -0.007071         0.341446         0.466134
 C         1.378717         0.034246         0.050426
 C         2.154549         0.750694        -1.130416
 C         3.339561        -0.162521        -1.166070
 C         2.730980        -1.495446        -1.524490
 C         2.060931        -1.360627        -0.135168
 O         1.448473        -2.447947         0.411860
 C         3.242868        -0.531477         0.396835
 O         2.440947         0.385514         1.173055
 H        -0.172678        -0.050320         1.470131
 H        -0.091284         1.453604         0.543647
 H        -0.711972        -0.054742        -0.368745
 H         1.474674         0.791141        -1.934300
 H         2.348475         1.808113        -0.997500
 H         4.236796         0.186835        -1.604554
 H         1.983994        -1.778275        -2.292071
 H         3.489341        -2.292637        -1.631459
 H         2.180671        -3.143425         0.463828
 H         4.153874        -1.000792         0.846838
