19
Iteration:  2776
 C        -0.123949         0.329936         0.312839
 C         1.390292         0.072797         0.075489
 C         1.969482         0.754076        -1.158971
 C         3.305515        -0.059850        -1.188830
 C         2.855059        -1.525975        -1.418732
 C         2.153225        -1.468255        -0.173487
 O         1.584491        -2.495983         0.553268
 C         3.282686        -0.509999         0.423817
 O         2.372134         0.379271         1.073695
 H        -0.575831        -0.187525         1.138465
 H        -0.246024         1.386175         0.587122
 H        -0.602190         0.358868        -0.688354
 H         1.363469         0.529086        -2.092761
 H         2.157247         1.820667        -0.928525
 H         4.215972         0.193009        -1.754989
 H         2.204445        -1.688465        -2.346335
 H         3.694136        -2.170583        -1.382020
 H         2.198739        -2.872988         1.230363
 H         4.228081        -0.782746         1.079801
