19
Iteration:  1326
 C         0.017334         0.365124         0.402439
 C         1.410508         0.031347         0.116264
 C         1.940486         0.789687        -1.111167
 C         3.254292        -0.159029        -1.225119
 C         2.711747        -1.515623        -1.543234
 C         2.089518        -1.390380        -0.088354
 O         1.564618        -2.495849         0.617257
 C         3.290903        -0.503522         0.367078
 O         2.519607         0.406876         1.051183
 H        -0.256998        -0.227268         1.275098
 H        -0.072826         1.431297         0.506085
 H        -0.597561         0.062304        -0.334399
 H         1.342798         0.637715        -1.975769
 H         2.022592         1.824020        -0.747514
 H         4.093268         0.217369        -1.822746
 H         2.333800        -1.581177        -2.627781
 H         3.508355        -2.321929        -1.481572
 H         1.467399        -3.267409        -0.026577
 H         4.172195        -0.926123         0.874004
