19
Iteration:   728charge 0 multiplicity 1
 C        -0.101472         0.181378         0.378011
 C         1.399084        -0.059191         0.027159
 C         2.094838         0.893281        -1.238946
 C         3.338273        -0.091852        -1.210512
 C         2.727379        -1.491999        -1.488768
 C         2.192247        -1.422242        -0.056481
 O         1.520668        -2.455192         0.601893
 C         3.294564        -0.448438         0.426594
 O         2.382423         0.414096         1.048944
 H        -0.566286        -0.476233         1.141852
 H        -0.294074         1.149163         0.613889
 H        -0.542388        -0.313050        -0.514461
 H         1.556275         0.783960        -2.113837
 H         2.273998         1.861180        -0.779922
 H         4.146892         0.377536        -1.651612
 H         1.921866        -1.504365        -2.141917
 H         3.385067        -2.375094        -1.598886
 H         2.127730        -3.150154         0.755858
 H         4.136961        -0.588896         1.170690
