19
Iteration:  1452
 C         0.033795         0.391507         0.490504
 C         1.410546        -0.031960        -0.011494
 C         2.040949         0.781147        -1.104528
 C         3.263635        -0.069104        -1.232170
 C         2.618105        -1.565195        -1.541645
 C         2.168566        -1.461734        -0.078549
 O         1.617454        -2.580345         0.517911
 C         3.281836        -0.496742         0.366605
 O         2.456691         0.452775         1.046433
 H        -0.080911        -0.161998         1.437338
 H        -0.065440         1.479657         0.690634
 H        -0.812361         0.214971        -0.297038
 H         1.406446         0.858212        -1.992160
 H         2.196737         1.805883        -0.772539
 H         4.108525         0.352166        -1.679676
 H         1.812977        -1.446826        -2.258604
 H         3.322977        -2.402369        -1.583826
 H         0.914392        -2.480776         1.192345
 H         4.146558        -0.927085         0.902460
