19
Iteration:  4373
 C        -0.102567         0.189453         0.325949
 C         1.382224         0.022703        -0.100402
 C         2.163935         0.828583        -1.160515
 C         3.408708        -0.066230        -1.056277
 C         2.774736        -1.577036        -1.470589
 C         2.084318        -1.370957        -0.117158
 O         1.543269        -2.419842         0.575365
 C         3.235634        -0.527400         0.407886
 O         2.320223         0.384088         1.048635
 H        -0.599329        -0.621152         0.757842
 H         0.009451         0.835185         1.181978
 H        -0.629277         0.526204        -0.589043
 H         1.758222         0.774843        -2.243197
 H         2.386947         1.896188        -0.887870
 H         4.255609         0.277337        -1.574279
 H         2.011605        -1.642189        -2.294445
 H         3.537270        -2.321007        -1.573177
 H         1.927007        -2.506518         1.456472
 H         4.092379        -0.802975         1.170645
