19
Iteration:  4092charge 0 multiplicity 1
 C         0.031730         0.088682         0.259630
 C         1.440548         0.064625        -0.030604
 C         2.159848         0.801634        -1.234219
 C         3.423703        -0.099461        -1.086480
 C         2.734303        -1.547788        -1.503959
 C         2.118785        -1.366107        -0.089318
 O         1.479945        -2.391603         0.602355
 C         3.219097        -0.511177         0.488649
 O         2.263808         0.497224         1.113687
 H        -0.143595        -0.593935         1.132452
 H        -0.305985         1.129860         0.627877
 H        -0.599391        -0.487526        -0.553493
 H         1.582028         0.811071        -2.156369
 H         2.254998         1.801773        -0.734231
 H         4.340845         0.213262        -1.564439
 H         1.976563        -1.571096        -2.288971
 H         3.514533        -2.402601        -1.586322
 H         1.744410        -3.233001         0.321019
 H         4.129035        -0.677229         1.046608
