19
Iteration:  4835
 C        -0.017121         0.479230         0.367393
 C         1.363762         0.074723         0.089976
 C         2.074978         0.835970        -1.097878
 C         3.315668        -0.135124        -1.160512
 C         2.739157        -1.510592        -1.505023
 C         2.110052        -1.490446        -0.154817
 O         1.619307        -2.565794         0.562230
 C         3.252068        -0.572178         0.430216
 O         2.409494         0.365504         1.043939
 H        -0.658614        -0.257398         0.908304
 H         0.047240         1.385014         1.022816
 H        -0.606036         0.743136        -0.571541
 H         1.530351         0.652351        -1.984337
 H         2.081750         1.846755        -0.781074
 H         4.331307         0.237376        -1.531133
 H         2.114364        -1.409149        -2.434524
 H         3.462269        -2.344895        -1.555255
 H         1.082687        -3.001341        -0.076429
 H         4.032549        -0.998483         1.017398
