19
Iteration:  2115charge 0 multiplicity 1
 C         0.028470         0.230635         0.475974
 C         1.375021         0.083354        -0.019171
 C         2.119948         0.796616        -1.176744
 C         3.339573        -0.095939        -1.154642
 C         2.654722        -1.531660        -1.556031
 C         2.191295        -1.448578        -0.155994
 O         1.475141        -2.482622         0.621478
 C         3.255425        -0.495567         0.376209
 O         2.372898         0.406451         1.043860
 H         0.059867        -0.202791         1.462672
 H        -0.259847         1.248844         0.760531
 H        -0.744168        -0.150491        -0.293630
 H         1.454718         0.918538        -2.048582
 H         2.388329         1.835253        -1.025096
 H         4.191057         0.327741        -1.696583
 H         2.017014        -1.606546        -2.436293
 H         3.378687        -2.339968        -1.801285
 H         2.113261        -2.605376         1.377565
 H         4.188131        -0.841328         0.917671
