19
Iteration:   741charge 0 multiplicity 1
 C        -0.095101         0.128194         0.306984
 C         1.388211         0.099381        -0.003357
 C         2.020176         0.724918        -1.124398
 C         3.307209        -0.074183        -1.156191
 C         2.724576        -1.506310        -1.447052
 C         2.142667        -1.349187        -0.083163
 O         1.538039        -2.432623         0.561958
 C         3.312559        -0.475914         0.380250
 O         2.427149         0.407659         1.098524
 H        -0.295336        -0.440782         1.229829
 H        -0.378104         1.164865         0.458435
 H        -0.749317        -0.017118        -0.551177
 H         1.524512         0.836701        -2.065278
 H         2.231459         1.753000        -0.918058
 H         4.200878         0.194104        -1.665864
 H         2.157039        -1.655736        -2.332874
 H         3.575825        -2.258551        -1.471248
 H         2.266009        -3.042030         0.904236
 H         4.350631        -0.859199         0.711384
