19
Iteration:  2119charge 0 multiplicity 1
 C         0.005476         0.243453         0.481752
 C         1.403041         0.062757        -0.042771
 C         2.129906         0.803750        -1.192504
 C         3.311730        -0.080154        -1.179647
 C         2.688525        -1.507386        -1.516822
 C         2.147825        -1.443624        -0.156958
 O         1.490111        -2.480468         0.622464
 C         3.236262        -0.500259         0.388058
 O         2.385914         0.385520         1.032393
 H         0.060272        -0.352202         1.493402
 H        -0.251200         1.232874         0.826641
 H        -0.800869        -0.139984        -0.084030
 H         1.530366         0.904968        -2.128857
 H         2.431300         1.859097        -1.131101
 H         4.302493         0.215763        -1.508008
 H         1.952993        -1.490902        -2.471504
 H         3.358077        -2.399011        -1.624155
 H         2.124439        -2.633284         1.308761
 H         4.131722        -0.788174         0.803386
