19
Iteration:  3742charge 0 multiplicity 1
 C        -0.127378         0.233140         0.350760
 C         1.361465        -0.005968         0.008780
 C         2.019940         0.734743        -1.217174
 C         3.364904        -0.068428        -1.159797
 C         2.992593        -1.551915        -1.472198
 C         2.172823        -1.395063        -0.138769
 O         1.444249        -2.396110         0.566899
 C         3.286677        -0.457489         0.461205
 O         2.303296         0.402628         1.113578
 H        -0.629590        -0.359809         1.066276
 H        -0.114832         1.282615         0.756736
 H        -0.708793         0.388413        -0.588591
 H         1.544983         0.504946        -2.208305
 H         2.393515         1.782884        -0.921236
 H         4.241306         0.187598        -1.686862
 H         2.462211        -1.600409        -2.388638
 H         3.709843        -2.417824        -1.365387
 H         2.003785        -3.229209         0.735247
 H         4.209888        -0.673982         1.062582
