19
Iteration:  3349charge 0 multiplicity 1
 C        -0.046915         0.168192         0.333992
 C         1.494037         0.023668         0.047156
 C         2.019093         0.729601        -1.158366
 C         3.357049        -0.122775        -1.145865
 C         2.766207        -1.523789        -1.451088
 C         2.128594        -1.378651        -0.118034
 O         1.564872        -2.482964         0.469650
 C         3.255152        -0.469221         0.407449
 O         2.399522         0.471920         1.115023
 H        -0.546028        -0.535947         0.953035
 H        -0.257599         1.125172         0.853929
 H        -0.625016         0.293978        -0.559511
 H         1.411806         0.711666        -2.064239
 H         2.036324         1.841946        -0.922286
 H         4.195427         0.293132        -1.709688
 H         2.158095        -1.681101        -2.321823
 H         3.637944        -2.274265        -1.262985
 H         0.841891        -2.121874         0.928719
 H         3.982834        -0.769952         1.105078
