19
Iteration:  2339
 C         0.014684         0.277840         0.452244
 C         1.376725        -0.007252         0.051530
 C         2.073045         0.782571        -1.284596
 C         3.342162        -0.104133        -1.162898
 C         2.721804        -1.549854        -1.543836
 C         2.090287        -1.376862        -0.140247
 O         1.538001        -2.466821         0.621355
 C         3.298852        -0.453264         0.365330
 O         2.323900         0.423723         1.096944
 H        -0.171693        -0.528183         1.170158
 H        -0.043069         1.242003         1.056088
 H        -0.690107         0.136117        -0.337837
 H         1.583457         0.699546        -2.252365
 H         2.137271         1.856570        -0.924961
 H         4.442016         0.130921        -1.493387
 H         2.105306        -1.561533        -2.499943
 H         3.571898        -2.206199        -1.564536
 H         2.172419        -3.128562         0.830799
 H         4.018317        -0.941475         1.012795
