19
Iteration:   734
 C        -0.109081         0.136067         0.359121
 C         1.398562         0.032299        -0.016932
 C         2.050032         0.817409        -1.176207
 C         3.317277        -0.088444        -1.183810
 C         2.729727        -1.494954        -1.445116
 C         2.182666        -1.387759        -0.054991
 O         1.525130        -2.442849         0.577143
 C         3.311386        -0.457828         0.411311
 O         2.411734         0.397285         1.064562
 H        -0.520698        -0.461631         1.171666
 H        -0.367514         1.310893         0.507456
 H        -0.661815        -0.147476        -0.562202
 H         1.498655         0.736091        -2.217059
 H         2.353929         1.818182        -0.743717
 H         4.265417         0.387261        -1.701924
 H         1.934047        -1.586999        -2.331824
 H         3.414080        -2.335642        -1.521923
 H         2.248072        -3.112920         0.829898
 H         4.212490        -0.723364         0.925142
