19
Iteration:  2374charge 0 multiplicity 1
 C        -0.098499         0.198854         0.346677
 C         1.459527         0.023116         0.083457
 C         1.994880         0.732104        -1.209320
 C         3.325316        -0.056005        -1.215360
 C         2.759237        -1.515308        -1.477191
 C         2.091899        -1.394843        -0.078721
 O         1.519658        -2.441330         0.642007
 C         3.363138        -0.470847         0.332672
 O         2.463954         0.446335         1.148162
 H        -0.507924        -0.589932         0.888712
 H        -0.351893         1.099570         0.887463
 H        -0.622670         0.385930        -0.612255
 H         1.459199         0.590423        -2.138694
 H         2.071453         1.752556        -0.848013
 H         4.222304         0.159856        -1.788637
 H         2.251944        -1.845420        -2.413585
 H         3.553147        -2.257512        -1.492881
 H         1.075840        -2.922738        -0.036483
 H         4.305333        -0.817720         0.877892
