19
Iteration:  1877charge 0 multiplicity 1
 C         0.042412         0.241560         0.543158
 C         1.444064         0.046986         0.053473
 C         1.974238         0.776109        -1.156021
 C         3.266296        -0.080015        -1.253261
 C         2.677680        -1.530445        -1.450227
 C         2.133762        -1.399889        -0.152572
 O         1.495529        -2.497010         0.491705
 C         3.377112        -0.497888         0.342598
 O         2.489196         0.387123         1.081114
 H        -0.029348        -0.135004         1.587077
 H        -0.248502         1.307858         0.538787
 H        -0.590468        -0.123917        -0.348384
 H         1.295241         0.630220        -2.098054
 H         2.022988         1.881994        -0.915880
 H         4.098708         0.224308        -1.948203
 H         2.058044        -1.412454        -2.352181
 H         3.374875        -2.332343        -1.544875
 H         0.913905        -2.254411         1.213993
 H         4.304512        -0.876387         0.914254
