19
Iteration:   662charge 0 multiplicity 1
 C        -0.046134         0.253208         0.378354
 C         1.352647         0.039662         0.094195
 C         1.974567         0.708073        -1.180262
 C         3.281406        -0.047804        -1.221576
 C         2.954224        -1.562960        -1.493023
 C         2.119244        -1.424273        -0.086996
 O         1.442041        -2.457355         0.550951
 C         3.307446        -0.375618         0.393869
 O         2.419639         0.431397         1.115968
 H        -0.257799        -0.448288         1.226338
 H        -0.325376         1.209652         0.691516
 H        -0.703884        -0.205670        -0.416528
 H         1.393455         0.479322        -2.028229
 H         2.229988         1.742588        -0.974767
 H         4.122387         0.381178        -1.681305
 H         2.462104        -1.661260        -2.428188
 H         3.772019        -2.325701        -1.378551
 H         1.829972        -3.354482         0.288310
 H         4.298532        -0.643315         0.761746
