19
Iteration:  2104
 C         0.010718         0.245411         0.454558
 C         1.476934         0.082758         0.036382
 C         2.031266         0.813347        -1.138193
 C         3.316184        -0.146732        -1.214395
 C         2.685569        -1.556257        -1.628935
 C         2.117754        -1.431457        -0.095707
 O         1.507537        -2.446519         0.584335
 C         3.309706        -0.512958         0.367543
 O         2.384937         0.429318         1.089441
 H        -0.303924        -0.314118         1.314455
 H        -0.181586         1.314104         0.343770
 H        -0.619599        -0.298290        -0.366822
 H         1.594180         0.666245        -2.131619
 H         2.174236         1.762204        -0.657821
 H         4.187850         0.223202        -1.789012
 H         1.828037        -1.535562        -2.314023
 H         3.546771        -2.237497        -1.780689
 H         1.849259        -2.657921         1.513639
 H         4.201009        -0.741293         1.050634
