19
Iteration:  4039
 C         0.007632         0.258802         0.244221
 C         1.415612         0.052056         0.019758
 C         2.041395         0.731356        -1.174921
 C         3.312702        -0.070081        -1.118893
 C         2.914335        -1.494067        -1.469010
 C         2.117994        -1.390739        -0.128661
 O         1.464043        -2.467668         0.524262
 C         3.218863        -0.490515         0.468466
 O         2.352961         0.347967         1.134868
 H        -0.244182         0.217627         1.312702
 H        -0.237291         1.293910        -0.129190
 H        -0.713175        -0.452763        -0.257323
 H         1.290820         0.626759        -2.005472
 H         2.138568         1.897493        -1.139520
 H         4.122167         0.348670        -1.773244
 H         2.280583        -1.665258        -2.361648
 H         3.843559        -2.160844        -1.281594
 H         1.950837        -2.819639         1.226412
 H         4.084237        -0.701661         1.112374
