19
Iteration:   876charge 0 multiplicity 1
 C        -0.014698         0.189199         0.369034
 C         1.412207         0.001383        -0.028370
 C         2.055844         0.829347        -1.212138
 C         3.272830        -0.053281        -1.198130
 C         2.787461        -1.579232        -1.518684
 C         2.207547        -1.405656        -0.132469
 O         1.520032        -2.445042         0.683847
 C         3.282942        -0.443730         0.458830
 O         2.308813         0.412311         1.088780
 H        -0.220078        -0.434550         1.223436
 H        -0.172897         1.279456         0.661286
 H        -0.653972        -0.026456        -0.471226
 H         1.607194         0.871438        -2.207437
 H         2.149662         1.806032        -0.757686
 H         4.304463         0.318627        -1.449701
 H         2.138020        -1.602012        -2.433953
 H         3.482056        -2.333268        -1.710940
 H         1.812764        -3.320355         0.369187
 H         4.171691        -0.654663         0.904961
