19
Iteration:  4611
 C        -0.048127         0.357929         0.398083
 C         1.446891         0.115258         0.015757
 C         2.092602         0.750165        -1.272288
 C         3.339380        -0.092839        -1.136527
 C         2.825276        -1.532232        -1.490269
 C         2.175397        -1.431181        -0.101565
 O         1.514828        -2.586728         0.497404
 C         3.324741        -0.467448         0.399621
 O         2.296407         0.343051         1.198108
 H        -0.692145        -0.466239         0.687784
 H        -0.194682         1.166043         1.141451
 H        -0.536261         0.816909        -0.546666
 H         1.542626         0.660537        -2.226594
 H         2.189707         1.838800        -1.070267
 H         4.122649         0.314565        -1.718321
 H         2.200974        -1.701708        -2.498894
 H         3.572349        -2.360506        -1.445520
 H         0.706731        -2.296034         1.036868
 H         4.174928        -0.645617         1.101557
