19
Iteration:  4389
 C        -0.016248         0.150622         0.276102
 C         1.433939         0.092674        -0.016931
 C         2.123705         0.807990        -1.156149
 C         3.321103        -0.176435        -1.149468
 C         2.789397        -1.475925        -1.575093
 C         2.194167        -1.490579        -0.121045
 O         1.475916        -2.425124         0.619111
 C         3.243316        -0.505464         0.467651
 O         2.324355         0.443151         1.089061
 H        -0.327678        -0.977319         0.467720
 H        -0.364655         0.896433         1.044990
 H        -0.696204         0.379413        -0.547792
 H         1.609333         0.939762        -2.075032
 H         2.312319         1.841287        -0.784373
 H         4.398643         0.152682        -1.382499
 H         2.075615        -1.417773        -2.383011
 H         3.613182        -2.369318        -1.590743
 H         1.342840        -1.989679         1.548368
 H         4.093267        -0.746521         1.008408
