19
Iteration:   126charge 0 multiplicity 1
 C        -0.115345         0.167218         0.289380
 C         1.368521         0.030794         0.004718
 C         2.146799         0.891358        -1.149935
 C         3.309522        -0.111352        -1.192659
 C         2.704156        -1.520962        -1.455811
 C         2.189272        -1.425227        -0.044648
 O         1.638589        -2.643235         0.642190
 C         3.316497        -0.422712         0.453074
 O         2.292456         0.519580         1.026726
 H        -0.385932        -0.616491         1.022494
 H        -0.292252         1.187408         0.716524
 H        -0.651345        -0.076463        -0.708977
 H         1.661138         1.072676        -2.255737
 H         2.383729         1.855947        -0.603174
 H         4.333249         0.223901        -1.683533
 H         2.020907        -1.728309        -2.314481
 H         3.705571        -2.031482        -1.514188
 H         1.045053        -2.913632        -0.031425
 H         4.185950        -0.473112         1.168069
