19
Iteration:  1873
 C         0.003685         0.238079         0.578272
 C         1.459591         0.074789         0.044702
 C         1.982674         0.750080        -1.179393
 C         3.284785        -0.055820        -1.262770
 C         2.650960        -1.561521        -1.482826
 C         2.123688        -1.390017        -0.117548
 O         1.515761        -2.500147         0.477340
 C         3.347650        -0.480687         0.361144
 O         2.514040         0.398517         1.079596
 H        -0.120709        -0.159714         1.550279
 H        -0.290179         1.257896         0.524062
 H        -0.625543        -0.073774        -0.222648
 H         1.452151         0.596569        -2.075219
 H         2.144304         1.722408        -0.829743
 H         4.130682         0.227399        -1.828528
 H         2.080230        -1.427892        -2.419220
 H         3.455031        -2.381843        -1.568586
 H         0.769565        -2.354717         1.140728
 H         4.234073        -0.847825         0.855545
