19
Iteration:  3689
 C        -0.149429         0.296410         0.289118
 C         1.353882         0.041370         0.012895
 C         2.149277         0.699502        -1.162836
 C         3.397002        -0.078169        -1.161985
 C         2.802687        -1.515797        -1.514451
 C         2.154951        -1.385218        -0.088722
 O         1.585885        -2.520001         0.517477
 C         3.226818        -0.467649         0.483950
 O         2.310542         0.461311         1.096069
 H        -0.465933        -0.473579         0.976500
 H        -0.494833         1.342187         0.646929
 H        -0.790545        -0.175697        -0.524869
 H         1.669693         0.643644        -2.136509
 H         2.341261         1.789259        -0.987517
 H         4.375618         0.065486        -1.513578
 H         2.182195        -1.631764        -2.355729
 H         3.538946        -2.377104        -1.420291
 H         1.910425        -2.732086         1.453811
 H         4.100871        -0.758664         1.085658
