19
Iteration:  1047charge 0 multiplicity 1
 C        -0.024309         0.220540         0.364000
 C         1.422774         0.083758         0.078150
 C         2.005766         0.719401        -1.172211
 C         3.271913        -0.081180        -1.162998
 C         2.742232        -1.505974        -1.462258
 C         2.111504        -1.360700        -0.125448
 O         1.525822        -2.454368         0.562300
 C         3.292808        -0.483156         0.287158
 O         2.433032         0.389771         1.129000
 H        -0.337691        -0.478646         1.045579
 H        -0.219160         1.200560         0.619742
 H        -0.613628         0.071581        -0.558228
 H         1.422437         0.599476        -2.136197
 H         2.149345         1.784983        -0.957003
 H         4.219230         0.315527        -1.634112
 H         2.074982        -1.757912        -2.303220
 H         3.610345        -2.302456        -1.305776
 H         2.221823        -2.923167         1.000204
 H         4.189652        -0.751205         0.833796
