19
Iteration:   500
 C         0.009553         0.231333         0.491134
 C         1.393856         0.055276        -0.051620
 C         2.010715         0.778968        -1.258509
 C         3.335784        -0.095942        -1.181528
 C         2.841417        -1.528047        -1.521393
 C         2.093120        -1.427324        -0.143352
 O         1.601656        -2.489947         0.539745
 C         3.243592        -0.471520         0.476339
 O         2.293265         0.389048         1.067225
 H        -0.223456        -0.341912         1.409703
 H        -0.034515         1.279055         0.752877
 H        -0.784766        -0.136606        -0.134457
 H         1.415616         0.733721        -2.170758
 H         2.271921         1.737708        -0.849611
 H         4.160035         0.255623        -1.640746
 H         2.324560        -1.556401        -2.452362
 H         3.769868        -2.171980        -1.509441
 H         1.368487        -2.245846         1.413974
 H         4.209091        -0.623218         1.068447
