19
Iteration:   256
 C        -0.038899         0.205999         0.269625
 C         1.417870         0.072319         0.060069
 C         1.957625         0.738016        -1.181027
 C         3.335352        -0.044805        -1.114283
 C         2.774639        -1.435653        -1.536753
 C         2.153901        -1.380165        -0.117758
 O         1.644779        -2.548670         0.609372
 C         3.262532        -0.535324         0.434295
 O         2.400070         0.433336         1.111342
 H        -0.284869        -0.331556         1.188230
 H        -0.258280         1.275840         0.384689
 H        -0.502067        -0.334571        -0.594065
 H         1.305508         0.585028        -2.093689
 H         2.006760         1.813974        -1.016516
 H         4.233915         0.589305        -1.719592
 H         2.078078        -1.601424        -2.436791
 H         3.460274        -2.314710        -1.563744
 H         0.682374        -2.498981         0.950091
 H         4.150008        -0.948844         0.946608
