19
Iteration:  4011charge 0 multiplicity 1
 C        -0.088350         0.300149         0.362408
 C         1.344615         0.046343        -0.021331
 C         2.118308         0.734918        -1.212113
 C         3.409000        -0.117276        -1.057138
 C         2.867226        -1.546662        -1.490430
 C         2.116535        -1.387656        -0.084656
 O         1.557786        -2.567548         0.443920
 C         3.224466        -0.422006         0.442897
 O         2.326993         0.435208         1.090713
 H        -0.215160         0.060272         1.446776
 H        -0.375676         1.331278         0.184885
 H        -0.827303        -0.227851        -0.239848
 H         1.539031         0.681922        -2.118048
 H         2.208194         1.765173        -1.128036
 H         4.314039         0.398320        -1.496964
 H         2.102074        -1.674082        -2.267214
 H         3.542036        -2.349279        -1.444196
 H         1.570231        -2.602070         1.418889
 H         4.020546        -0.729827         1.147606
