19
Iteration:   239
 C        -0.112137         0.164172         0.377382
 C         1.421074         0.078823         0.040540
 C         2.027119         0.770602        -1.152604
 C         3.357511        -0.127791        -1.091783
 C         2.714768        -1.501045        -1.475717
 C         2.124896        -1.394048        -0.064728
 O         1.702492        -2.526176         0.458780
 C         3.229435        -0.486577         0.420797
 O         2.425361         0.509180         1.051447
 H        -0.593399        -0.428553         1.178091
 H        -0.614467         1.130257         0.489274
 H        -0.647128        -0.333624        -0.473303
 H         1.664657         0.460066        -2.158033
 H         2.191461         1.874503        -1.140955
 H         4.251763         0.087095        -1.403711
 H         2.123291        -1.387822        -2.385445
 H         3.473197        -2.298748        -1.637524
 H         0.851254        -2.333951         0.986247
 H         4.049353        -0.710851         1.075203
