19
Iteration:  4790charge 0 multiplicity 1
 C         0.003995         0.445001         0.424723
 C         1.425797         0.074380         0.038230
 C         2.053993         0.759068        -1.128183
 C         3.375350        -0.074756        -1.150479
 C         2.778577        -1.476529        -1.523049
 C         2.031588        -1.400625        -0.180417
 O         1.616112        -2.560116         0.487577
 C         3.226561        -0.632335         0.407761
 O         2.347622         0.338964         1.121334
 H        -0.282273         0.114066         1.475568
 H        -0.069258         1.576988         0.330667
 H        -0.687040        -0.083597        -0.238591
 H         1.521320         0.617885        -2.041723
 H         2.321561         1.762810        -0.911038
 H         4.377602         0.335803        -1.601406
 H         2.150140        -1.783536        -2.464637
 H         3.611212        -2.183324        -1.387963
 H         0.754823        -2.306660         0.824260
 H         4.069855        -1.016300         0.948026
