19
Iteration:  3907
 C        -0.098824         0.169311         0.344606
 C         1.357132         0.076555         0.025757
 C         2.189475         0.785240        -1.200892
 C         3.387221        -0.088702        -1.140086
 C         2.812169        -1.563403        -1.419945
 C         2.103420        -1.374909        -0.117595
 O         1.557273        -2.469746         0.511414
 C         3.255049        -0.473021         0.383744
 O         2.282051         0.431434         1.065326
 H        -0.531749        -0.576742         0.928231
 H        -0.284913         1.113024         0.869274
 H        -0.621306         0.229680        -0.621931
 H         1.708714         0.507995        -2.162487
 H         2.396495         1.819098        -0.733322
 H         4.320183         0.244028        -1.460803
 H         2.234343        -1.559344        -2.335099
 H         3.476319        -2.526731        -1.437281
 H         1.737230        -2.454939         1.438432
 H         3.999254        -0.720320         1.113650
