19
Iteration:  2806
 C        -0.002088         0.193877         0.352187
 C         1.426802         0.047798         0.005793
 C         2.093950         0.733911        -1.219347
 C         3.407705        -0.088169        -1.113935
 C         2.700921        -1.489854        -1.469285
 C         2.053214        -1.413454        -0.183720
 O         1.609935        -2.543571         0.566628
 C         3.199475        -0.464676         0.408814
 O         2.312060         0.479638         1.080791
 H        -0.300088        -0.416889         1.183865
 H        -0.084384         1.284370         0.754304
 H        -0.632273        -0.074389        -0.434647
 H         1.592961         0.891928        -2.130529
 H         2.158427         1.815862        -0.952067
 H         4.416656         0.020046        -1.367413
 H         1.955952        -1.327557        -2.287237
 H         3.339879        -2.335226        -1.540592
 H         2.111433        -2.611739         1.404186
 H         4.061171        -0.625288         0.979894
