19
Iteration:   222charge 0 multiplicity 1
 C        -0.070614         0.118799         0.391716
 C         1.354668         0.056184         0.016224
 C         2.140808         0.763598        -1.241586
 C         3.343757        -0.093983        -1.187114
 C         2.785018        -1.503891        -1.437986
 C         2.067548        -1.340833        -0.088563
 O         1.593612        -2.612729         0.448819
 C         3.314956        -0.397665         0.453919
 O         2.326321         0.494796         1.094296
 H        -0.114811        -0.387794         1.387659
 H        -0.285001         1.195532         0.632198
 H        -0.783990        -0.184787        -0.353934
 H         1.543895         0.848855        -2.138419
 H         2.334620         1.722843        -0.788789
 H         4.356983         0.406100        -1.749323
 H         1.980924        -1.679306        -2.237469
 H         3.466880        -2.321132        -1.284828
 H         1.219037        -2.370596         1.342227
 H         4.264701        -0.737802         0.953424
