19
Iteration:  4367charge 0 multiplicity 1
 C        -0.086071         0.213927         0.328521
 C         1.368580         0.015416        -0.091191
 C         2.174679         0.808521        -1.189636
 C         3.410832        -0.055343        -1.098915
 C         2.781675        -1.528444        -1.442489
 C         2.044731        -1.359736        -0.125065
 O         1.554870        -2.451385         0.571535
 C         3.265820        -0.514662         0.417415
 O         2.309062         0.354783         1.067453
 H        -0.701774        -0.691567         0.733510
 H         0.027052         1.050890         1.083623
 H        -0.729856         0.640255        -0.445505
 H         1.847179         0.715263        -2.197616
 H         2.322812         1.882276        -1.015532
 H         4.286761         0.439515        -1.630622
 H         2.099418        -1.648933        -2.269315
 H         3.408506        -2.489193        -1.166050
 H         2.058405        -2.652355         1.340190
 H         3.966422        -0.824365         1.094838
