19
Iteration:  1951charge 0 multiplicity 1
 C         0.043756         0.247336         0.452998
 C         1.457795         0.094104         0.026479
 C         2.010769         0.791235        -1.159401
 C         3.298046        -0.160989        -1.254615
 C         2.646555        -1.502121        -1.546350
 C         2.103354        -1.374858        -0.092695
 O         1.552998        -2.525339         0.636600
 C         3.279994        -0.478025         0.395627
 O         2.420022         0.427048         1.091018
 H        -0.201261        -0.395059         1.271906
 H         0.024265         1.238122         0.928465
 H        -0.671891         0.111718        -0.437905
 H         1.469774         1.041257        -2.136565
 H         2.274367         1.825351        -1.028632
 H         4.262139         0.137799        -1.750463
 H         1.780125        -1.535587        -2.350112
 H         3.393555        -2.359463        -1.839363
 H         1.675570        -3.365934         0.222176
 H         4.276341        -0.690514         0.962271
