19
Iteration:  1340
 C         0.024356         0.279563         0.428318
 C         1.483648         0.124926         0.103691
 C         1.997281         0.715072        -1.140927
 C         3.276866        -0.085398        -1.216997
 C         2.680214        -1.546360        -1.500376
 C         2.038625        -1.355141        -0.147493
 O         1.564145        -2.460212         0.599638
 C         3.319850        -0.568617         0.325630
 O         2.475579         0.434329         1.113332
 H        -0.408664        -0.276705         1.248566
 H        -0.293491         1.261738         0.786723
 H        -0.412960        -0.013969        -0.571527
 H         1.202214         0.576211        -1.870005
 H         2.222248         1.724366        -1.165793
 H         4.194487         0.403063        -1.755120
 H         1.831678        -1.727521        -2.295652
 H         3.383263        -2.351922        -1.501571
 H         1.590928        -3.135951        -0.046388
 H         4.145960        -0.973764         0.889943
