19
Iteration:  4572
 C        -0.035116         0.066737         0.332378
 C         1.401708         0.081995         0.004914
 C         2.104876         0.884310        -1.213725
 C         3.393345        -0.090345        -1.084429
 C         2.791840        -1.477645        -1.476485
 C         2.069302        -1.344198        -0.159447
 O         1.384926        -2.358787         0.572356
 C         3.247399        -0.629236         0.481930
 O         2.410114         0.410892         1.052201
 H        -0.087002        -0.786103         1.052522
 H        -0.303169         1.042665         0.791558
 H        -0.624350        -0.132491        -0.503347
 H         1.865172         0.833492        -2.297003
 H         2.486107         1.923496        -0.971566
 H         4.346187         0.233552        -1.602599
 H         2.169793        -1.692715        -2.304473
 H         3.469436        -2.383440        -1.474780
 H         2.045150        -2.722166         1.203160
 H         4.154949        -1.205624         0.832424
