19
Iteration:   754
 C        -0.027634         0.193430         0.283963
 C         1.429901         0.005561         0.128745
 C         2.018890         0.789056        -1.190074
 C         3.289327        -0.109372        -1.174322
 C         2.816716        -1.512043        -1.523247
 C         2.043331        -1.370608        -0.150719
 O         1.535734        -2.411676         0.579269
 C         3.239734        -0.504984         0.332056
 O         2.432739         0.455862         1.173055
 H        -0.291228        -0.515748         1.087863
 H        -0.394578         1.212871         0.691537
 H        -0.467120        -0.365089        -0.492993
 H         1.359722         0.375745        -1.978999
 H         2.075526         1.845523        -0.997543
 H         4.203810         0.383448        -1.644569
 H         2.274508        -1.753793        -2.496047
 H         3.636005        -2.235680        -1.303441
 H         2.247055        -2.870493         0.979734
 H         4.068973        -0.833543         0.982072
