19
Iteration:  1554charge 0 multiplicity 1
 C         0.071978         0.167710         0.577864
 C         1.467078         0.093531         0.078464
 C         2.084371         0.712334        -1.201686
 C         3.253368        -0.121477        -1.224377
 C         2.591958        -1.529893        -1.491556
 C         2.042763        -1.285710        -0.124034
 O         1.456297        -2.391767         0.513102
 C         3.306284        -0.553242         0.381007
 O         2.531323         0.447171         1.014526
 H        -0.251544        -0.656606         1.302898
 H        -0.192194         1.133720         1.130676
 H        -0.548905        -0.019807        -0.281938
 H         1.416737         0.772672        -2.085294
 H         2.258410         1.810677        -0.888114
 H         4.187886         0.243068        -1.717399
 H         1.860087        -1.852968        -2.137699
 H         3.387870        -2.299837        -1.573174
 H         2.026203        -3.137395         0.196199
 H         4.174430        -0.835576         1.001069
