19
Iteration:   820charge 0 multiplicity 1
 C        -0.055568         0.199503         0.429745
 C         1.415583         0.139164        -0.026007
 C         2.041165         0.725769        -1.208115
 C         3.282421        -0.102217        -1.193828
 C         2.820396        -1.514656        -1.459929
 C         2.129645        -1.392090        -0.110938
 O         1.518283        -2.491288         0.567228
 C         3.248875        -0.472811         0.462690
 O         2.389006         0.478626         1.070174
 H        -0.301407        -0.489470         1.232320
 H        -0.319542         1.158834         0.852271
 H        -0.672515        -0.224086        -0.341509
 H         1.489521         0.512317        -2.145932
 H         2.184465         1.774771        -1.113014
 H         4.313792         0.203164        -1.614915
 H         2.281389        -1.546203        -2.425957
 H         3.672315        -2.148697        -1.295476
 H         2.072392        -3.305658         0.352549
 H         4.102509        -0.881130         0.920602
