19
Iteration:  3544
 C        -0.043181         0.354887         0.317286
 C         1.411082         0.088844         0.029843
 C         2.063081         0.748581        -1.230508
 C         3.271928        -0.065637        -1.114169
 C         2.861636        -1.506013        -1.484418
 C         2.172047        -1.485853        -0.138406
 O         1.521462        -2.526237         0.590322
 C         3.321200        -0.460861         0.431516
 O         2.303157         0.410586         1.151445
 H        -0.583697        -0.504529         0.888122
 H        -0.220462         1.328758         0.841521
 H        -0.642983         0.317394        -0.609010
 H         1.500588         0.475472        -2.139665
 H         2.026657         1.844326        -1.272672
 H         4.176285         0.291382        -1.597204
 H         2.138695        -1.684364        -2.293661
 H         3.580718        -2.302877        -1.528555
 H         1.959716        -3.325690         0.400646
 H         4.111045        -0.839019         1.057545
