19
Iteration:    98charge 0 multiplicity 1
 C        -0.066601         0.193188         0.295962
 C         1.347534         0.082813        -0.022786
 C         1.984833         0.717281        -1.226988
 C         3.406456        -0.092075        -1.076990
 C         2.798060        -1.486505        -1.499368
 C         2.120557        -1.326830        -0.189507
 O         1.738688        -2.429213         0.603748
 C         3.193769        -0.540028         0.456135
 O         2.360575         0.401525         1.156824
 H        -0.349413        -0.474226         1.104684
 H        -0.351800         1.181512         0.574062
 H        -0.664163        -0.243116        -0.517832
 H         1.495410         0.476261        -2.082988
 H         1.910331         1.778230        -1.124327
 H         4.322704         0.307043        -1.337444
 H         2.233887        -1.596996        -2.417742
 H         3.631340        -2.201321        -1.540424
 H         0.773567        -2.540710         0.586424
 H         3.940464        -0.979429         1.094133
