19
Iteration:  4900charge 0 multiplicity 1
 C         0.072823         0.132787         0.438521
 C         1.473298         0.009340         0.037995
 C         2.109639         0.792471        -1.124272
 C         3.340245        -0.077414        -1.182094
 C         2.788380        -1.485102        -1.528678
 C         2.056771        -1.376799        -0.105752
 O         1.277234        -2.355263         0.552672
 C         3.275052        -0.520615         0.339858
 O         2.492085         0.415680         1.106510
 H        -0.313624        -0.809817         0.878474
 H        -0.072215         0.991655         1.107660
 H        -0.731098         0.263406        -0.357290
 H         1.632616         0.457651        -2.100551
 H         2.350651         1.812530        -0.909428
 H         4.434508         0.249425        -1.400307
 H         2.124595        -1.519048        -2.331514
 H         3.586723        -2.142732        -1.537172
 H         1.109567        -3.204481         0.065522
 H         4.106572        -0.917898         0.874784
