19
Iteration:  1840charge 0 multiplicity 1
 C         0.066027         0.273426         0.645696
 C         1.471467         0.152068         0.018326
 C         2.006133         0.770646        -1.186892
 C         3.339227        -0.099041        -1.198100
 C         2.657735        -1.540543        -1.532561
 C         2.016048        -1.396599        -0.127289
 O         1.620141        -2.533515         0.544386
 C         3.244676        -0.549230         0.359271
 O         2.445891         0.444356         1.014592
 H        -0.146832        -0.292901         1.502006
 H        -0.139441         1.286257         0.913600
 H        -0.663469        -0.155234         0.016549
 H         1.493963         0.714658        -2.118556
 H         2.175110         1.803477        -1.026880
 H         4.199717         0.174273        -1.769298
 H         2.184520        -1.534950        -2.548953
 H         3.468203        -2.349599        -1.626665
 H         0.653231        -2.736761         0.411252
 H         4.045759        -0.975538         0.901851
