19
Iteration:  1108charge 0 multiplicity 1
 C         0.023528         0.167923         0.445468
 C         1.425435         0.044666         0.006785
 C         1.981100         0.777296        -1.203127
 C         3.326388        -0.115689        -1.248531
 C         2.762107        -1.493197        -1.463949
 C         2.072386        -1.360566        -0.112868
 O         1.627460        -2.460590         0.559400
 C         3.257626        -0.495252         0.400067
 O         2.416478         0.424641         1.080058
 H        -0.178166        -0.108668         1.590848
 H        -0.096611         1.283156         0.850319
 H        -0.799583        -0.099117        -0.229067
 H         1.450746         0.744684        -2.130519
 H         2.144333         1.816313        -0.831967
 H         4.199045         0.251747        -1.739484
 H         2.195989        -1.880508        -2.394869
 H         3.373491        -2.383200        -1.305061
 H         0.674183        -2.521973         0.389953
 H         4.094915        -0.994000         1.019539
