19
Iteration:  4658
 C        -0.062566         0.538963         0.385024
 C         1.366768         0.094953         0.029948
 C         2.098418         0.732483        -1.206265
 C         3.352672        -0.154159        -1.117294
 C         2.832200        -1.480831        -1.512873
 C         2.081446        -1.430870        -0.086022
 O         1.664526        -2.601561         0.584736
 C         3.197852        -0.528966         0.435110
 O         2.312144         0.351432         1.066476
 H        -0.522933        -0.368348         0.873775
 H        -0.212068         1.347995         1.165565
 H        -0.742973         0.830235        -0.402087
 H         1.588386         0.675899        -2.126427
 H         2.265665         1.740396        -1.077418
 H         4.375384         0.119115        -1.466763
 H         2.217027        -1.445256        -2.536942
 H         3.574359        -2.275427        -1.610772
 H         1.223742        -3.201435         0.008110
 H         4.142412        -0.850992         0.969400
