19
Iteration:  1393charge 0 multiplicity 1
 C         0.090795         0.177841         0.564442
 C         1.449754         0.000839         0.012141
 C         2.036650         0.809824        -1.187834
 C         3.247548        -0.156064        -1.174630
 C         2.707059        -1.510057        -1.562698
 C         2.095839        -1.404626        -0.151262
 O         1.421759        -2.323471         0.581906
 C         3.265573        -0.522389         0.338054
 O         2.465546         0.430249         1.051894
 H        -0.177239        -0.610611         1.252422
 H        -0.114569         1.170734         0.965564
 H        -0.544248        -0.021110        -0.252919
 H         1.383794         0.700863        -2.048267
 H         2.191619         1.827691        -0.870289
 H         4.307266         0.044348        -1.597646
 H         2.281845        -1.708496        -2.620464
 H         3.484764        -2.267240        -1.580558
 H         2.099843        -2.840206         0.980625
 H         4.099563        -0.906224         0.909849
