19
Iteration:  3050
 C         0.007354         0.259473         0.364761
 C         1.402048         0.008387         0.058903
 C         1.976759         0.728063        -1.211400
 C         3.331460        -0.052128        -1.136152
 C         2.885153        -1.505082        -1.414883
 C         2.090090        -1.380958        -0.134827
 O         1.531821        -2.477357         0.560969
 C         3.231965        -0.462262         0.386102
 O         2.429409         0.409433         1.111776
 H        -0.335045        -0.218632         1.308415
 H        -0.140577         1.301823         0.308859
 H        -0.691686        -0.249117        -0.368881
 H         1.473485         0.408137        -2.161460
 H         1.928801         1.803533        -1.071942
 H         4.193685         0.270910        -1.682647
 H         2.444356        -1.734768        -2.412236
 H         3.651402        -2.224104        -1.324558
 H         0.813677        -2.800370        -0.004114
 H         4.124409        -0.779294         1.043444
