19
Iteration:  2996charge 0 multiplicity 1
 C        -0.048940         0.103893         0.363877
 C         1.418847         0.078313         0.023697
 C         2.143261         0.811764        -1.204496
 C         3.355969        -0.073022        -1.174176
 C         2.762377        -1.548752        -1.478304
 C         2.106975        -1.355571        -0.093594
 O         1.457055        -2.445624         0.639045
 C         3.282025        -0.510697         0.366006
 O         2.346187         0.478887         1.054117
 H        -0.214026        -0.752857         1.109599
 H        -0.317571         0.982157         0.907159
 H        -0.846020        -0.133627        -0.432508
 H         1.711486         1.063100        -2.191941
 H         2.338158         1.795380        -0.854223
 H         4.301571         0.233339        -1.581330
 H         2.161775        -1.646502        -2.405014
 H         3.477197        -2.356333        -1.306731
 H         2.018662        -3.141280         0.359089
 H         4.198887        -0.804147         1.011424
