19
Iteration:  4340
 C        -0.036981         0.375710         0.340070
 C         1.393946         0.122568         0.031602
 C         2.029641         0.719955        -1.196308
 C         3.301848        -0.103013        -1.076368
 C         2.981594        -1.596071        -1.522707
 C         2.124784        -1.476553        -0.133127
 O         1.537619        -2.504445         0.506003
 C         3.181256        -0.507566         0.456183
 O         2.302082         0.440140         1.143491
 H        -0.578643        -0.383607         0.788205
 H        -0.120009         1.361379         0.789722
 H        -0.596873         0.650133        -0.597586
 H         1.456714         0.382226        -2.159113
 H         2.204964         1.820316        -1.291722
 H         4.139756         0.409201        -1.499118
 H         2.235411        -1.683688        -2.365404
 H         3.832494        -2.246073        -1.518952
 H         2.155543        -3.137827         0.802413
 H         4.051403        -0.730878         1.212305
