19
Iteration:   446
 C        -0.080750         0.216757         0.349257
 C         1.447635         0.079651         0.037368
 C         2.029712         0.820847        -1.099490
 C         3.279548        -0.032603        -1.278824
 C         2.768588        -1.622109        -1.440410
 C         2.142236        -1.392848        -0.037101
 O         1.631798        -2.580996         0.493585
 C         3.232668        -0.471150         0.380385
 O         2.424595         0.470181         1.121629
 H        -0.512897        -0.344323         1.208173
 H        -0.394663         1.250182         0.508534
 H        -0.624767        -0.124858        -0.523105
 H         1.377294         0.839415        -2.031786
 H         2.259739         1.856995        -0.740972
 H         4.055314         0.297771        -1.793116
 H         2.258449        -1.924624        -2.319765
 H         3.782516        -2.142858        -1.518812
 H         0.841283        -2.353591         0.947858
 H         4.163160        -0.931535         0.826779
