19
Iteration:  1788
 C         0.007498         0.336877         0.462283
 C         1.463195         0.041075         0.091909
 C         1.997566         0.757841        -1.095801
 C         3.200433        -0.081835        -1.274808
 C         2.662270        -1.496137        -1.571447
 C         2.095663        -1.392525        -0.165705
 O         1.577101        -2.431268         0.667032
 C         3.290245        -0.578438         0.295878
 O         2.525646         0.368805         1.135872
 H        -0.475838        -0.380580         1.187613
 H        -0.151999         1.300021         0.935657
 H        -0.638496         0.306840        -0.558404
 H         1.340319         0.760704        -2.055528
 H         2.202790         1.799858        -1.059188
 H         4.135428         0.207660        -1.663807
 H         2.091081        -1.524405        -2.475518
 H         3.333145        -2.377872        -1.521008
 H         1.587302        -3.296361         0.215886
 H         4.270486        -1.001533         0.591147
