19
Iteration:  3139
 C        -0.080166         0.213014         0.272700
 C         1.377636         0.081229         0.016887
 C         2.010960         0.766370        -1.127557
 C         3.301982        -0.104335        -1.141871
 C         2.845519        -1.535703        -1.466302
 C         2.148520        -1.392304        -0.079069
 O         1.513906        -2.425715         0.540289
 C         3.249371        -0.519915         0.371960
 O         2.406829         0.412201         1.119013
 H        -0.422391        -0.653487         0.894841
 H        -0.276811         1.153339         0.672942
 H        -0.570561         0.114771        -0.687147
 H         1.652517         0.863970        -2.129051
 H         2.126323         1.817039        -1.049325
 H         4.219890         0.281182        -1.655282
 H         2.292332        -1.792910        -2.316916
 H         3.670680        -2.264480        -1.260803
 H         2.087126        -2.817073         1.212813
 H         4.172317        -0.749548         0.949739
