19
Iteration:  3935
 C         0.014982         0.167602         0.246551
 C         1.406266         0.028262        -0.032403
 C         2.052789         0.769760        -1.182147
 C         3.319243        -0.026830        -1.197698
 C         2.882389        -1.511109        -1.459043
 C         2.149717        -1.431892        -0.157790
 O         1.503699        -2.444669         0.622211
 C         3.220191        -0.534887         0.475823
 O         2.369581         0.398931         1.152272
 H        -0.473604        -0.720681         0.846631
 H        -0.229151         1.078522         0.872291
 H        -0.505299         0.460305        -0.718923
 H         1.386773         0.505725        -2.044303
 H         2.077768         1.800470        -1.012297
 H         4.294335         0.378345        -1.666119
 H         2.276830        -1.472943        -2.417951
 H         3.597467        -2.296224        -1.578721
 H         0.916490        -1.896518         1.204174
 H         4.078130        -0.807283         1.147303
