19
Iteration:  1025
 C        -0.098789         0.278844         0.376192
 C         1.412317         0.013867         0.067537
 C         2.034927         0.796037        -1.179699
 C         3.263786        -0.093119        -1.295941
 C         2.797441        -1.529182        -1.571998
 C         2.172816        -1.417282        -0.063183
 O         1.544263        -2.453992         0.654511
 C         3.294978        -0.490224         0.466362
 O         2.413136         0.415474         1.108062
 H        -0.380507        -0.404915         1.091298
 H        -0.278256         1.266902         0.582586
 H        -0.730156         0.075692        -0.499290
 H         1.377687         0.682064        -2.105354
 H         2.100752         1.861514        -0.920821
 H         4.182148         0.255444        -1.877264
 H         2.122863        -1.609414        -2.452738
 H         3.645597        -2.370646        -1.601532
 H         1.878934        -3.305339         0.183690
 H         4.168510        -0.704384         1.157714
