19
Iteration:   440charge 0 multiplicity 1
 C        -0.064321         0.198914         0.383006
 C         1.408384         0.051685         0.014213
 C         2.041698         0.854522        -1.171814
 C         3.279744        -0.040319        -1.215825
 C         2.745755        -1.619500        -1.380740
 C         2.127721        -1.372041        -0.070940
 O         1.644095        -2.571627         0.499323
 C         3.259043        -0.490044         0.365214
 O         2.407980         0.437987         1.102690
 H        -0.300816        -0.392268         1.278234
 H        -0.463549         1.257585         0.432260
 H        -0.581426        -0.036351        -0.586578
 H         1.443228         1.108139        -2.047087
 H         2.317403         1.860081        -0.723702
 H         4.268261         0.368215        -1.829073
 H         2.101488        -1.917468        -2.289012
 H         3.704224        -2.045181        -1.572813
 H         0.868884        -2.452273         1.074083
 H         4.173793        -0.782893         0.894872
