19
Iteration:   208charge 0 multiplicity 1
 C         0.022506         0.183055         0.438017
 C         1.438992         0.025657        -0.047093
 C         2.035909         0.853425        -1.182368
 C         3.340241        -0.067616        -1.244639
 C         2.849765        -1.553326        -1.397460
 C         2.175637        -1.431629        -0.101186
 O         1.501795        -2.532106         0.479347
 C         3.210063        -0.411034         0.430779
 O         2.263588         0.416738         1.073493
 H        -0.092137        -0.460465         1.367441
 H        -0.195246         1.257680         0.648753
 H        -0.650993        -0.208587        -0.330983
 H         1.491101         0.828520        -2.068227
 H         2.238918         1.898996        -0.939825
 H         4.294717         0.248793        -1.683571
 H         2.327399        -1.734319        -2.387178
 H         3.686173        -2.270548        -1.383344
 H         1.623685        -2.547748         1.432445
 H         4.080681        -0.517309         1.078716
