19
Iteration:  4083charge 0 multiplicity 1
 C        -0.010783         0.105252         0.285465
 C         1.433990         0.018637        -0.100077
 C         2.150027         0.766348        -1.128513
 C         3.374482        -0.123635        -1.150730
 C         2.730649        -1.490698        -1.470828
 C         2.137919        -1.366797        -0.072102
 O         1.479334        -2.362170         0.599394
 C         3.216556        -0.472426         0.549229
 O         2.316532         0.436622         1.055287
 H        -0.105168        -0.479121         1.255546
 H        -0.546000         1.108846         0.315072
 H        -0.636823        -0.378393        -0.552380
 H         1.824617         0.825066        -2.193114
 H         2.299860         1.903448        -0.955989
 H         4.356409         0.356370        -1.421227
 H         2.047707        -1.520821        -2.385676
 H         3.519419        -2.343690        -1.526688
 H         1.993082        -3.091790         0.347805
 H         4.047213        -0.969333         1.038972
