19
Iteration:  2221
 C        -0.082686         0.207494         0.489206
 C         1.391855         0.113288         0.053407
 C         2.156217         0.813543        -1.249909
 C         3.356981        -0.101968        -1.237674
 C         2.705491        -1.575377        -1.518785
 C         2.023625        -1.365647        -0.143475
 O         1.617319        -2.406506         0.633646
 C         3.216068        -0.540973         0.401632
 O         2.424121         0.392101         1.084377
 H        -0.272116        -0.503730         1.276628
 H        -0.286297         1.244673         0.873256
 H        -0.902123        -0.050714        -0.261439
 H         1.566207         0.617426        -2.168491
 H         2.275313         1.946699        -1.021341
 H         4.364189         0.326514        -1.713832
 H         1.889695        -1.622830        -2.307304
 H         3.532624        -2.361326        -1.498386
 H         1.699937        -3.260070         0.165429
 H         4.196010        -0.870203         0.978957
