19
Iteration:  1222
 C         0.077654         0.177737         0.433901
 C         1.470973         0.063793         0.036098
 C         1.939273         0.757400        -1.100455
 C         3.351425        -0.144998        -1.222808
 C         2.695632        -1.558105        -1.528129
 C         2.135458        -1.344229        -0.145343
 O         1.544924        -2.414377         0.583812
 C         3.307556        -0.501203         0.325679
 O         2.414954         0.415326         1.112695
 H        -0.223254        -0.415876         1.271684
 H        -0.024503         1.137868         0.929927
 H        -0.507238         0.064758        -0.554459
 H         1.319875         0.655951        -2.091544
 H         1.903519         1.836695        -0.847933
 H         4.230458         0.361755        -1.739824
 H         1.900551        -1.699957        -2.267389
 H         3.410881        -2.437907        -1.720145
 H         0.611981        -2.219270         0.895516
 H         4.228432        -0.870116         0.735070
