19
Iteration:  1466charge 0 multiplicity 1
 C        -0.005436         0.381447         0.539648
 C         1.397102         0.094435         0.074114
 C         2.060294         0.838292        -1.227851
 C         3.319001        -0.165831        -1.220866
 C         2.617704        -1.453272        -1.527295
 C         2.074493        -1.412296        -0.102576
 O         1.691217        -2.649546         0.583810
 C         3.294922        -0.520131         0.326339
 O         2.395351         0.364253         1.047422
 H        -0.303339        -0.093622         1.532206
 H        -0.017315         1.527998         0.587107
 H        -0.757967         0.041129        -0.184058
 H         1.568944         0.792532        -2.212199
 H         2.312476         1.862289        -0.758227
 H         4.241717        -0.062098        -1.761762
 H         1.917765        -1.609331        -2.252622
 H         3.459434        -2.176035        -1.766946
 H         0.783389        -2.356714         0.871081
 H         4.254840        -0.689428         0.846862
