19
Iteration:  4850
 C        -0.000804         0.363377         0.429875
 C         1.425556         0.092770        -0.007394
 C         2.098785         0.806132        -1.190423
 C         3.354860        -0.124483        -1.112083
 C         2.742014        -1.494255        -1.548422
 C         1.988142        -1.367954        -0.127922
 O         1.563877        -2.543379         0.588569
 C         3.229173        -0.567651         0.391000
 O         2.410265         0.371681         1.139966
 H        -0.461145        -0.556675         0.780479
 H        -0.071204         1.152856         1.170920
 H        -0.579418         0.753977        -0.487834
 H         1.514284         0.917601        -2.182416
 H         2.582165         1.796967        -0.809467
 H         4.186705         0.201894        -1.654253
 H         2.082092        -1.649070        -2.537243
 H         3.592330        -2.327041        -1.521651
 H         1.249382        -3.327248         0.018854
 H         4.200279        -0.877756         0.899854
