19
Iteration:  3299
 C        -0.060634         0.164659         0.396922
 C         1.404578        -0.005177        -0.050380
 C         2.128864         0.761820        -1.108714
 C         3.380050        -0.091435        -1.161679
 C         2.833192        -1.578317        -1.553646
 C         2.071009        -1.324357        -0.102122
 O         1.508719        -2.401716         0.561590
 C         3.260398        -0.498715         0.391274
 O         2.299701         0.428245         1.070998
 H        -0.310308        -0.575936         1.183296
 H        -0.400918         1.179917         0.752057
 H        -0.737041         0.019909        -0.519067
 H         1.609988         0.815042        -2.085441
 H         2.324630         1.795414        -0.782593
 H         4.274485         0.333146        -1.548195
 H         2.322162        -1.438398        -2.510423
 H         3.455464        -2.395062        -1.360169
 H         2.068847        -2.665566         1.351613
 H         4.177047        -0.799469         0.992931
