19
Iteration:  1377
 C         0.044430         0.158041         0.539617
 C         1.430224         0.051266         0.013578
 C         2.091272         0.772494        -1.136861
 C         3.378892        -0.082536        -1.245649
 C         2.668191        -1.530846        -1.553355
 C         2.094228        -1.408478        -0.134917
 O         1.423672        -2.385741         0.653429
 C         3.308387        -0.520224         0.348188
 O         2.396894         0.442155         0.999656
 H         0.012347        -0.686130         1.281142
 H         0.026516         1.232385         0.863703
 H        -0.864414         0.094987        -0.176474
 H         1.613608         0.815102        -2.154559
 H         2.394316         1.807997        -0.708825
 H         4.133294         0.415583        -1.747614
 H         1.839276        -1.565067        -2.189399
 H         3.400776        -2.383736        -1.707017
 H         1.802795        -3.291757         0.585092
 H         4.254865        -0.778669         0.876857
