19
Iteration:  4321
 C        -0.100743         0.456585         0.317173
 C         1.383128        -0.019889         0.004985
 C         1.961266         0.649905        -1.190029
 C         3.396850        -0.033244        -1.064074
 C         2.915841        -1.497907        -1.435667
 C         2.199297        -1.464399        -0.059137
 O         1.463418        -2.531231         0.485653
 C         3.277522        -0.485537         0.466646
 O         2.346260         0.419058         1.042502
 H        -0.524153        -0.166773         1.149913
 H        -0.044856         1.541887         0.647578
 H        -0.767163         0.209919        -0.547302
 H         1.396975         0.520547        -2.143878
 H         1.963967         1.756043        -0.988981
 H         4.348748         0.282918        -1.425909
 H         2.342211        -1.614081        -2.371775
 H         3.869871        -2.153149        -1.270479
 H         1.829320        -3.385078         0.363211
 H         4.162324        -0.631124         0.999608
