19
Iteration:   424
 C        -0.038316         0.167085         0.400474
 C         1.425308         0.053199        -0.021873
 C         2.091256         0.852549        -1.183494
 C         3.306388        -0.108863        -1.145419
 C         2.721536        -1.468625        -1.505479
 C         2.112755        -1.396967        -0.073050
 O         1.644186        -2.546401         0.530710
 C         3.266856        -0.439652         0.397178
 O         2.324413         0.379840         1.048084
 H        -0.232670        -0.392039         1.343075
 H        -0.263680         1.183805         0.690718
 H        -0.794815        -0.220403        -0.279777
 H         1.654327         0.770740        -2.233163
 H         2.314431         1.911552        -0.832726
 H         4.169097         0.155463        -1.552531
 H         2.157971        -1.585529        -2.411602
 H         3.303815        -2.432705        -1.375415
 H         1.258014        -2.157074         1.406484
 H         4.244307        -0.643461         0.897407
