19
Iteration:  2252charge 0 multiplicity 1
 C        -0.005471         0.209403         0.409412
 C         1.477097         0.004601         0.050694
 C         2.032996         0.808497        -1.172228
 C         3.257452        -0.070075        -1.154668
 C         2.758086        -1.572206        -1.532889
 C         2.076555        -1.434310        -0.102928
 O         1.565040        -2.413748         0.622623
 C         3.260963        -0.512106         0.393468
 O         2.425649         0.429073         1.045713
 H        -0.113795        -0.070217         1.430095
 H        -0.198840         1.307393         0.504186
 H        -0.736789        -0.199808        -0.210682
 H         1.583872         0.712220        -2.143297
 H         2.304054         1.856627        -0.798593
 H         4.269639         0.343961        -1.607360
 H         1.950712        -1.615967        -2.356756
 H         3.499433        -2.214420        -1.962599
 H         0.980842        -3.103688         0.255946
 H         4.255939        -0.632708         0.851806
