19
Iteration:  4469
 C        -0.029470         0.402547         0.424150
 C         1.370623         0.073169        -0.137491
 C         2.107473         0.756415        -1.243695
 C         3.322545        -0.071752        -1.039656
 C         2.834581        -1.543737        -1.418181
 C         2.085080        -1.415683        -0.098175
 O         1.653568        -2.532609         0.549098
 C         3.221935        -0.500758         0.478762
 O         2.279798         0.333860         1.029177
 H         0.051147         0.384022         1.525585
 H        -0.120470         1.513373         0.354256
 H        -0.970021        -0.151426         0.025753
 H         1.655832         0.678580        -2.208322
 H         2.164385         1.753537        -0.984470
 H         4.253437         0.345602        -1.407066
 H         2.242849        -1.485420        -2.423111
 H         3.558423        -2.334800        -1.422412
 H         0.986365        -3.124130         0.041442
 H         4.226591        -0.972273         0.998724
