19
Iteration:  4114charge 0 multiplicity 1
 C        -0.077295         0.152218         0.291513
 C         1.402077         0.068319         0.002445
 C         2.145195         0.770736        -1.221721
 C         3.388755        -0.116640        -1.152118
 C         2.830280        -1.514872        -1.453220
 C         2.113315        -1.387287        -0.030005
 O         1.428828        -2.436749         0.604824
 C         3.286098        -0.403738         0.481445
 O         2.354875         0.423496         1.082999
 H        -0.495129        -0.776325         0.794154
 H        -0.437448         1.024919         0.940237
 H        -0.662794        -0.063434        -0.711051
 H         1.656832         0.555876        -2.169810
 H         2.276679         1.900879        -1.144850
 H         4.276891         0.342514        -1.563977
 H         2.253738        -1.609958        -2.371312
 H         3.749219        -2.191075        -1.328999
 H         1.475007        -3.268980         0.015635
 H         4.238039        -0.685242         0.865961
