19
Iteration:  2913charge 0 multiplicity 1
 C        -0.040388         0.295728         0.486232
 C         1.347816         0.087741        -0.092395
 C         2.092001         0.795967        -1.173607
 C         3.334287        -0.147860        -1.179240
 C         2.796454        -1.526474        -1.408983
 C         2.096078        -1.397015        -0.122806
 O         1.668046        -2.604766         0.480486
 C         3.169325        -0.452585         0.406166
 O         2.322774         0.457191         1.051463
 H        -0.143920        -0.250436         1.446832
 H        -0.315076         1.399699         0.569077
 H        -0.696035        -0.068957        -0.257792
 H         1.634231         0.705440        -2.126867
 H         2.468240         1.753474        -0.780745
 H         4.251667         0.118977        -1.668145
 H         2.326507        -1.659176        -2.376380
 H         3.483444        -2.430745        -1.331107
 H         1.594815        -2.348307         1.446194
 H         3.929150        -0.892581         0.914630
