19
Iteration:  3908charge 0 multiplicity 1
 C        -0.096531         0.167831         0.335521
 C         1.350960         0.080036         0.023946
 C         2.182460         0.783367        -1.205631
 C         3.380532        -0.084134        -1.136138
 C         2.806437        -1.565258        -1.417521
 C         2.108157        -1.365444        -0.112406
 O         1.555713        -2.468645         0.512293
 C         3.261061        -0.473760         0.381302
 O         2.287916         0.420978         1.067126
 H        -0.523560        -0.598666         0.958325
 H        -0.277103         1.093055         0.864955
 H        -0.624210         0.259756        -0.609062
 H         1.742313         0.514954        -2.197560
 H         2.380745         1.819842        -0.736542
 H         4.357849         0.238839        -1.438276
 H         2.252024        -1.568977        -2.348381
 H         3.492233        -2.487007        -1.446408
 H         1.705124        -2.448927         1.482329
 H         4.010541        -0.736451         1.104416
