19
Iteration:  4371
 C        -0.100560         0.194377         0.330187
 C         1.379494         0.018201        -0.103066
 C         2.169713         0.826874        -1.168404
 C         3.408663        -0.057612        -1.065505
 C         2.781137        -1.566530        -1.461081
 C         2.061788        -1.365338        -0.117918
 O         1.548436        -2.427632         0.570500
 C         3.245080        -0.523727         0.403073
 O         2.317657         0.372420         1.054083
 H        -0.652012        -0.613102         0.747324
 H         0.041285         0.890096         1.154058
 H        -0.664969         0.552946        -0.559131
 H         1.809536         0.756288        -2.210666
 H         2.370563         1.860097        -0.957430
 H         4.271469         0.356430        -1.622256
 H         2.009901        -1.645269        -2.272055
 H         3.468241        -2.362280        -1.425208
 H         1.993927        -2.579791         1.469856
 H         4.080588        -0.813911         1.209488
