19
Iteration:  4390charge 0 multiplicity 1
 C        -0.011740         0.145334         0.270949
 C         1.442552         0.098777        -0.014227
 C         2.122358         0.807007        -1.155953
 C         3.315204        -0.174568        -1.160974
 C         2.797035        -1.465932        -1.578456
 C         2.186378        -1.494616        -0.116911
 O         1.471417        -2.429074         0.624803
 C         3.245784        -0.504247         0.462661
 O         2.326283         0.441845         1.098109
 H        -0.339152        -0.971607         0.471738
 H        -0.360475         0.870773         1.058549
 H        -0.681850         0.349009        -0.586440
 H         1.615394         0.926086        -2.058847
 H         2.331023         1.819115        -0.827709
 H         4.392010         0.181576        -1.412044
 H         2.062115        -1.412844        -2.384225
 H         3.566518        -2.367152        -1.555062
 H         1.287407        -1.977077         1.510597
 H         4.126855        -0.731187         1.069744
