19
Iteration:   555charge 0 multiplicity 1
 C         0.000474         0.166044         0.301662
 C         1.468878         0.048200         0.099510
 C         1.995828         0.661077        -1.158526
 C         3.322029        -0.046401        -1.140752
 C         2.716657        -1.466320        -1.537108
 C         2.138730        -1.455798        -0.117072
 O         1.529046        -2.445187         0.560402
 C         3.312178        -0.442314         0.393093
 O         2.356791         0.447547         1.124161
 H        -0.331661        -0.507768         1.135677
 H        -0.181416         1.235812         0.537387
 H        -0.446963         0.043756        -0.701977
 H         1.309388         0.536776        -2.022019
 H         2.083210         1.704744        -1.201646
 H         4.150428         0.422868        -1.491789
 H         1.911809        -1.520261        -2.251762
 H         3.502273        -2.200544        -1.909085
 H         1.957615        -2.781488         1.365686
 H         4.347733        -0.710323         0.841153
