19
Iteration:  2224charge 0 multiplicity 1
 C        -0.072798         0.195861         0.491543
 C         1.409181         0.118526         0.027756
 C         2.144418         0.818025        -1.225682
 C         3.396239        -0.067570        -1.258132
 C         2.690536        -1.569367        -1.516741
 C         2.018239        -1.332033        -0.127226
 O         1.612093        -2.431972         0.654564
 C         3.182618        -0.538344         0.408635
 O         2.419516         0.372000         1.070910
 H        -0.224024        -0.450355         1.400349
 H        -0.275134         1.210307         0.843323
 H        -0.892382        -0.043954        -0.319273
 H         1.629051         0.577372        -2.182044
 H         2.336704         1.853498        -1.017869
 H         4.295350         0.215468        -1.720544
 H         2.001590        -1.718013        -2.322351
 H         3.495999        -2.345648        -1.588068
 H         1.669782        -3.207937         0.134771
 H         4.172038        -0.791591         0.908367
