19
Iteration:  4580charge 0 multiplicity 1
 C         0.000171         0.114174         0.363688
 C         1.427149         0.066984        -0.047431
 C         2.072856         0.797542        -1.173676
 C         3.382311        -0.104885        -1.069842
 C         2.817043        -1.491168        -1.507803
 C         2.096557        -1.360849        -0.130662
 O         1.417322        -2.343095         0.528264
 C         3.262118        -0.606979         0.467085
 O         2.383485         0.397579         1.027897
 H        -0.362541        -0.709343         0.979141
 H        -0.262055         1.011964         0.994643
 H        -0.648636         0.161160        -0.571523
 H         1.780645         0.898840        -2.185649
 H         2.269091         1.723256        -0.792119
 H         4.173900         0.260620        -1.684024
 H         2.096502        -1.463682        -2.383540
 H         3.508638        -2.199787        -1.187752
 H         1.746955        -2.475440         1.407761
 H         4.117123        -1.219546         1.041311
