19
Iteration:  3131
 C        -0.130554         0.252876         0.280717
 C         1.386326         0.096776         0.016737
 C         2.068488         0.786585        -1.202853
 C         3.254251        -0.089726        -1.084402
 C         2.819621        -1.571710        -1.527269
 C         2.184293        -1.397289        -0.107493
 O         1.558294        -2.455120         0.541106
 C         3.313814        -0.568583         0.420571
 O         2.356426         0.414916         1.101637
 H        -0.458831        -0.526669         1.096960
 H        -0.450510         1.258024         0.761661
 H        -0.598860         0.170192        -0.690796
 H         1.371651         0.603850        -2.086558
 H         2.373039         1.865893        -0.867500
 H         4.209806         0.425268        -1.440955
 H         2.134082        -1.755024        -2.329891
 H         3.702993        -2.315850        -1.328934
 H         2.089950        -2.689513         1.356141
 H         4.168143        -0.666529         1.029129
