19
Iteration:  3199
 C        -0.038780         0.087216         0.426919
 C         1.388525         0.039000        -0.004673
 C         2.071894         0.750072        -1.247904
 C         3.430276        -0.077908        -1.140744
 C         2.831381        -1.513245        -1.496048
 C         2.082643        -1.322218        -0.107375
 O         1.490812        -2.417711         0.567410
 C         3.257842        -0.495639         0.479482
 O         2.312079         0.478331         1.056329
 H        -0.146699        -0.382547         1.377122
 H        -0.240878         1.214951         0.682973
 H        -0.844242        -0.211303        -0.314676
 H         1.808453         0.560212        -2.274892
 H         2.366619         1.766768        -0.923054
 H         4.284555         0.411118        -1.523231
 H         2.301926        -1.729974        -2.467390
 H         3.509030        -2.351819        -1.263550
 H         1.619448        -3.202441         0.095668
 H         4.138522        -0.809443         1.057710
