19
Iteration:  3550charge 0 multiplicity 1
 C        -0.011092         0.338974         0.326723
 C         1.386220         0.088870         0.058025
 C         2.007946         0.732282        -1.236532
 C         3.345139        -0.036454        -1.136878
 C         2.827975        -1.494685        -1.468383
 C         2.122223        -1.464785        -0.102586
 O         1.546688        -2.513566         0.574324
 C         3.270201        -0.479646         0.458489
 O         2.309521         0.400068         1.122032
 H        -0.562278        -0.396980         0.819522
 H        -0.130959         1.292245         0.792628
 H        -0.540313         0.267665        -0.638188
 H         1.575927         0.299590        -2.163885
 H         2.215345         1.816263        -1.111367
 H         4.297173         0.194868        -1.679440
 H         2.192780        -1.696867        -2.368019
 H         3.624887        -2.324794        -1.471513
 H         1.943110        -3.354513         0.215479
 H         4.230468        -0.657190         1.027471
