19
Iteration:  1968
 C         0.000063         0.311032         0.491690
 C         1.459855        -0.028290         0.054314
 C         2.040473         0.774070        -1.225309
 C         3.241609        -0.046862        -1.233256
 C         2.674998        -1.508793        -1.477252
 C         2.183595        -1.461735        -0.051304
 O         1.506695        -2.459652         0.587001
 C         3.325940        -0.496668         0.385289
 O         2.460012         0.420481         1.044722
 H        -0.323689        -0.513802         1.171431
 H        -0.331693         1.301478         0.911348
 H        -0.635190         0.305919        -0.355426
 H         1.438131         0.406177        -1.985107
 H         2.197927         1.846945        -0.884854
 H         4.039152         0.293953        -1.855363
 H         1.999673        -1.630032        -2.243338
 H         3.415995        -2.239999        -1.547280
 H         1.330305        -3.052915        -0.117974
 H         4.224635        -0.767541         0.815218
