19
Iteration:  2506charge 0 multiplicity 1
 C        -0.029885         0.203123         0.416000
 C         1.405791         0.037476        -0.058946
 C         2.051907         0.683114        -1.207214
 C         3.379365        -0.099787        -1.205047
 C         2.731774        -1.439871        -1.491259
 C         2.140096        -1.360261        -0.063578
 O         1.567875        -2.424308         0.628070
 C         3.190069        -0.512769         0.458880
 O         2.408625         0.476496         1.095692
 H        -0.293253        -0.418039         1.268200
 H        -0.469793         1.187478         0.477829
 H        -0.568838        -0.459555        -0.439235
 H         1.617639         0.607543        -2.233720
 H         2.234118         1.724427        -0.989713
 H         4.277862         0.155332        -1.677889
 H         1.974244        -1.562971        -2.261411
 H         3.491544        -2.280453        -1.559184
 H         1.462784        -3.195061         0.043730
 H         4.157677        -0.880586         0.955141
