19
Iteration:  3762
 C        -0.017936         0.132553         0.290718
 C         1.453630         0.073619        -0.001333
 C         2.090629         0.714177        -1.244261
 C         3.367653        -0.056456        -1.112145
 C         2.851719        -1.489735        -1.407445
 C         2.079883        -1.383739        -0.070160
 O         1.417053        -2.423821         0.567692
 C         3.261342        -0.431148         0.385531
 O         2.356798         0.420418         1.124488
 H        -0.425871        -0.628811         0.965757
 H        -0.252663         1.115852         0.668701
 H        -0.630119        -0.027194        -0.598941
 H         1.515213         0.412134        -2.190422
 H         2.068593         1.810114        -0.917483
 H         4.298711         0.426405        -1.483385
 H         2.276448        -1.828070        -2.324329
 H         3.729941        -2.140449        -1.239695
 H         1.803669        -3.293396         0.235156
 H         4.121413        -0.660987         1.064195
