19
Iteration:  4942charge 0 multiplicity 1
 C        -0.023736         0.379592         0.480948
 C         1.454999         0.045235         0.051736
 C         2.124580         0.762706        -1.118013
 C         3.389021        -0.154305        -1.137161
 C         2.705645        -1.497537        -1.525745
 C         2.083105        -1.373238        -0.188480
 O         1.454511        -2.501468         0.442609
 C         3.225406        -0.543894         0.389829
 O         2.393004         0.375129         1.159667
 H        -0.241213         0.027491         1.499976
 H         0.069728         1.450305         0.302106
 H        -0.702691        -0.046410        -0.217793
 H         1.418365         0.756561        -2.100753
 H         2.250982         1.852636        -0.857635
 H         4.288301         0.184128        -1.816290
 H         1.979853        -1.537553        -2.360831
 H         3.444392        -2.309752        -1.552572
 H         2.228710        -2.997270         0.583541
 H         4.123696        -0.949602         0.789789
