19
Iteration:  4923
 C        -0.012541         0.290687         0.455329
 C         1.475295         0.127379         0.061965
 C         2.044854         0.812754        -1.164171
 C         3.297228        -0.117454        -1.189515
 C         2.732796        -1.551605        -1.505719
 C         2.109171        -1.379824        -0.120957
 O         1.378633        -2.428294         0.455429
 C         3.300734        -0.574013         0.436289
 O         2.493894         0.363566         1.114200
 H        -0.255840        -0.517161         1.168466
 H        -0.352522         1.272641         0.810154
 H        -0.781755        -0.050050        -0.383327
 H         1.695017         0.706389        -2.215798
 H         2.378757         1.768277        -0.787302
 H         4.283414         0.298711        -1.577247
 H         2.297268        -1.487770        -2.461610
 H         3.455385        -2.290576        -1.293194
 H         1.717738        -3.272801         0.240150
 H         4.162480        -0.848390         1.047867
