19
Iteration:   444charge 0 multiplicity 1
 C        -0.077275         0.212656         0.367305
 C         1.442156         0.069768         0.024721
 C         2.033236         0.837903        -1.121055
 C         3.283001        -0.029687        -1.261247
 C         2.756747        -1.630878        -1.415409
 C         2.137065        -1.381917        -0.040574
 O         1.639421        -2.579717         0.491565
 C         3.238372        -0.481210         0.374813
 O         2.419414         0.461694         1.117178
 H        -0.444478        -0.348576         1.228519
 H        -0.428933         1.211913         0.463432
 H        -0.625514        -0.079437        -0.584648
 H         1.417487         0.936795        -2.004826
 H         2.260932         1.782174        -0.761267
 H         4.129888         0.329806        -1.822097
 H         2.236265        -1.930054        -2.306997
 H         3.771148        -2.085570        -1.583824
 H         0.805009        -2.377723         1.009568
 H         4.120345        -0.879567         0.821667
