19
Iteration:  3367charge 0 multiplicity 1
 C        -0.109655         0.304820         0.381226
 C         1.345034         0.053313         0.063918
 C         2.064947         0.773821        -1.199640
 C         3.347222        -0.120477        -1.147761
 C         2.867775        -1.532150        -1.515261
 C         2.102133        -1.403613        -0.084242
 O         1.585269        -2.594525         0.534980
 C         3.324123        -0.419690         0.421148
 O         2.346658         0.397848         1.077231
 H        -0.366765        -0.443576         1.300998
 H        -0.336871         1.260639         0.823950
 H        -0.663894         0.341875        -0.582837
 H         1.701057         0.595437        -2.232266
 H         2.330490         1.750548        -0.971447
 H         4.292655         0.413212        -1.597148
 H         2.054473        -1.543692        -2.343859
 H         3.619654        -2.222887        -1.452499
 H         0.719482        -2.416334         0.794372
 H         4.377786        -0.634634         0.774430
