19
Iteration:  3749charge 0 multiplicity 1
 C        -0.087554         0.247988         0.309024
 C         1.348859        -0.092871         0.051173
 C         2.049868         0.733676        -1.245164
 C         3.382955        -0.071073        -1.161216
 C         2.932809        -1.521658        -1.435634
 C         2.159316        -1.376881        -0.101578
 O         1.413186        -2.412169         0.575470
 C         3.286388        -0.413610         0.427434
 O         2.311719         0.428530         1.149030
 H        -0.320690        -0.564473         1.109797
 H        -0.294869         1.165316         0.799353
 H        -0.573073         0.207891        -0.642546
 H         1.538416         0.674236        -2.253867
 H         2.257411         1.802141        -1.128266
 H         4.440005         0.206166        -1.635896
 H         2.584945        -1.597423        -2.575156
 H         3.657254        -2.296788        -1.269109
 H         1.902967        -3.230869         0.499444
 H         4.260065        -0.854425         0.725419
