19
Iteration:   131
 C        -0.122211         0.161760         0.293636
 C         1.400698         0.056944        -0.059683
 C         2.077135         0.907379        -1.144304
 C         3.322808        -0.096539        -1.201381
 C         2.721673        -1.549929        -1.460263
 C         2.231829        -1.454801        -0.034838
 O         1.630963        -2.617372         0.635419
 C         3.278814        -0.407930         0.476670
 O         2.317170         0.508054         1.047753
 H        -0.339380        -0.589096         1.053231
 H        -0.326868         1.162129         0.639953
 H        -0.620380         0.084476        -0.667112
 H         1.714315         1.103877        -2.060843
 H         2.338787         1.787240        -0.601975
 H         4.269208         0.018740        -1.623639
 H         1.902533        -1.822143        -2.131157
 H         3.656246        -2.099786        -1.573715
 H         1.127864        -2.977019        -0.196819
 H         4.115861        -0.488139         1.139863
