19
Iteration:  2272
 C        -0.073256         0.287855         0.390998
 C         1.443207         0.037528         0.072939
 C         1.947802         0.732209        -1.193118
 C         3.318779        -0.136484        -1.204475
 C         2.750265        -1.451951        -1.528958
 C         2.173410        -1.391032        -0.056684
 O         1.558358        -2.465349         0.594081
 C         3.369230        -0.494762         0.348777
 O         2.463091         0.394547         1.116353
 H        -0.356805        -0.076747         1.422688
 H        -0.551623         1.310890         0.400235
 H        -0.622084        -0.334586        -0.287604
 H         1.366990         0.368128        -2.023400
 H         2.122820         1.781451        -0.893335
 H         4.180499         0.369593        -1.780354
 H         2.177650        -1.636960        -2.486689
 H         3.421882        -2.304268        -1.468156
 H         0.600006        -2.525939         0.241924
 H         4.112363        -0.983201         0.900652
