19
Iteration:  4789charge 0 multiplicity 1
 C         0.003771         0.438087         0.424737
 C         1.416092         0.081941         0.034420
 C         2.058438         0.758128        -1.127724
 C         3.367569        -0.079208        -1.151165
 C         2.781712        -1.481439        -1.522785
 C         2.029790        -1.401235        -0.193341
 O         1.613311        -2.558342         0.487907
 C         3.237025        -0.633233         0.407924
 O         2.351926         0.343599         1.121520
 H        -0.274729         0.110935         1.470317
 H        -0.094058         1.563963         0.327967
 H        -0.684143        -0.089192        -0.200357
 H         1.562640         0.608166        -2.070497
 H         2.316431         1.756466        -0.863396
 H         4.354033         0.363304        -1.550394
 H         2.154996        -1.773305        -2.405927
 H         3.602454        -2.147767        -1.401874
 H         0.735618        -2.280759         0.854287
 H         4.088289        -1.046381         0.961672
