19
Iteration:   842charge 0 multiplicity 1
 C        -0.085359         0.214970         0.326568
 C         1.440855         0.014731         0.065583
 C         1.939455         0.731506        -1.259724
 C         3.323249        -0.037815        -1.142734
 C         2.839620        -1.546045        -1.464772
 C         2.063747        -1.375758        -0.038622
 O         1.527729        -2.433746         0.581281
 C         3.313343        -0.457408         0.372706
 O         2.472339         0.428744         1.134852
 H        -0.507103        -0.486715         1.045420
 H        -0.344451         1.188484         0.758605
 H        -0.687038        -0.138385        -0.561283
 H         1.535245         0.484131        -2.239534
 H         2.011113         1.789141        -1.168753
 H         4.319926         0.461260        -1.534712
 H         2.110965        -1.635893        -2.298707
 H         3.531002        -2.323498        -1.263325
 H         1.765218        -3.156367         0.027847
 H         4.182641        -0.791342         0.818113
