19
Iteration:  2324charge 0 multiplicity 1
 C        -0.053523         0.253980         0.528708
 C         1.380079         0.017664        -0.063790
 C         2.130419         0.750449        -1.165691
 C         3.359542        -0.109686        -1.199843
 C         2.768477        -1.459709        -1.499305
 C         2.120260        -1.433695        -0.112981
 O         1.511363        -2.502139         0.577373
 C         3.225549        -0.472557         0.394355
 O         2.363777         0.408400         1.007686
 H        -0.386646        -0.302729         1.497271
 H        -0.026486         1.341767         0.741171
 H        -0.877415         0.198499        -0.244397
 H         1.594218         0.653848        -2.161182
 H         2.406282         1.766175        -0.869178
 H         4.150648         0.349753        -1.754674
 H         2.112287        -1.601009        -2.339115
 H         3.386412        -2.395207        -1.573002
 H         2.195753        -2.743522         1.271524
 H         4.202781        -0.495216         0.828330
