19
Iteration:   488
 C        -0.002816         0.237567         0.430185
 C         1.391607        -0.045929        -0.026836
 C         1.995333         0.736119        -1.230957
 C         3.350341        -0.015420        -1.160552
 C         2.798603        -1.438119        -1.480409
 C         2.201603        -1.380104        -0.130482
 O         1.576285        -2.511759         0.547370
 C         3.259974        -0.510536         0.408903
 O         2.329126         0.380791         1.100688
 H        -0.013322        -0.231688         1.413911
 H        -0.065015         1.287113         0.617038
 H        -0.832897         0.129446        -0.298750
 H         1.507052         0.440009        -2.146680
 H         1.938558         1.780261        -1.311738
 H         4.219222         0.389773        -1.560190
 H         2.081186        -1.651266        -2.244803
 H         3.505685        -2.332999        -1.504424
 H         1.050919        -2.051294         1.276960
 H         4.125212        -0.838514         1.008622
