19
Iteration:  1324charge 0 multiplicity 1
 C         0.011971         0.366411         0.406827
 C         1.397561         0.025549         0.121312
 C         1.946745         0.786076        -1.127534
 C         3.259086        -0.149372        -1.224380
 C         2.710793        -1.496863        -1.539687
 C         2.097432        -1.416473        -0.091179
 O         1.564501        -2.494744         0.617239
 C         3.285272        -0.513876         0.354884
 O         2.518628         0.410708         1.059671
 H        -0.302595        -0.143337         1.351497
 H        -0.040994         1.458431         0.567385
 H        -0.620906         0.024193        -0.373637
 H         1.400236         0.673996        -2.086684
 H         2.049627         1.863532        -0.722459
 H         4.064496         0.196182        -1.772990
 H         2.338885        -1.672729        -2.562944
 H         3.528330        -2.339264        -1.546010
 H         1.462176        -3.230883        -0.000587
 H         4.221831        -0.867250         0.861281
