19
Iteration:    41charge 0 multiplicity 1
 C        -0.032711         0.134740         0.405389
 C         1.373817         0.085628         0.012735
 C         2.021139         0.794849        -1.191016
 C         3.315321        -0.110123        -1.148495
 C         2.847382        -1.532778        -1.396813
 C         2.176321        -1.393434        -0.096260
 O         1.622402        -2.570970         0.465889
 C         3.240711        -0.490797         0.516367
 O         2.340549         0.529877         0.993973
 H        -0.215795        -0.180297         1.418525
 H        -0.400249         1.165971         0.360725
 H        -0.723080        -0.221010        -0.432843
 H         1.508429         0.658307        -2.114998
 H         2.253018         1.829233        -0.957108
 H         4.099147         0.343906        -1.649465
 H         2.139954        -1.693581        -2.183925
 H         3.749046        -2.223690        -1.326337
 H         0.630718        -2.453068         0.517903
 H         4.189621        -0.593634         1.124639
