19
Iteration:  3582
 C        -0.096217         0.262591         0.384795
 C         1.347857         0.074009        -0.018128
 C         2.037345         0.778988        -1.173673
 C         3.392151        -0.068169        -1.066682
 C         2.820513        -1.609023        -1.459597
 C         2.145870        -1.429227        -0.114310
 O         1.569585        -2.503465         0.546763
 C         3.228650        -0.493406         0.441136
 O         2.339916         0.498958         1.080616
 H        -0.250188        -0.340042         1.234375
 H        -0.276198         1.332711         0.638685
 H        -0.699344         0.086093        -0.542396
 H         1.823001         0.639587        -2.252176
 H         2.462205         1.784396        -1.043965
 H         4.268710         0.225586        -1.686508
 H         2.210748        -1.747465        -2.370520
 H         3.798089        -2.231502        -1.509605
 H         1.335711        -3.303532        -0.031725
 H         4.190730        -0.724269         0.953168
