19
Iteration:  1461charge 0 multiplicity 1
 C         0.014880         0.407154         0.524743
 C         1.384285         0.021017         0.018867
 C         2.053049         0.826984        -1.173818
 C         3.325062        -0.145014        -1.236656
 C         2.611534        -1.478942        -1.503415
 C         2.109783        -1.411120        -0.095248
 O         1.661557        -2.641274         0.565566
 C         3.304741        -0.493860         0.351734
 O         2.411090         0.399808         1.040130
 H        -0.319296        -0.030944         1.444272
 H        -0.042499         1.456170         0.755256
 H        -0.757069        -0.030046        -0.177627
 H         1.459624         0.908467        -2.096804
 H         2.221232         1.800219        -0.802587
 H         4.344677         0.011539        -1.696292
 H         1.785419        -1.761859        -2.312217
 H         3.416977        -2.080084        -1.893825
 H         0.799386        -2.434858         0.983828
 H         4.233225        -0.863522         0.808532
