19
Iteration:  3502
 C         0.001744         0.160900         0.346346
 C         1.426374         0.081711        -0.004357
 C         2.094309         0.798948        -1.181980
 C         3.411584        -0.079695        -1.118311
 C         2.768198        -1.545078        -1.487668
 C         2.082368        -1.358006        -0.123784
 O         1.469158        -2.434948         0.573121
 C         3.211753        -0.492001         0.386559
 O         2.305208         0.384139         1.079609
 H        -0.246643        -0.643841         1.126265
 H        -0.126399         1.223110         0.793573
 H        -0.746225        -0.104162        -0.463167
 H         1.613516         0.584788        -2.122761
 H         2.409963         1.848552        -0.909068
 H         4.284318         0.378252        -1.556372
 H         2.432701        -1.641733        -2.522321
 H         3.781246        -2.146474        -1.439197
 H         2.127500        -2.653102         1.281035
 H         4.046670        -0.996775         0.904952
