19
Iteration:  3664charge 0 multiplicity 1
 C         0.004686         0.204871         0.202828
 C         1.415410        -0.010897         0.002327
 C         2.044067         0.825338        -1.172859
 C         3.343851        -0.044708        -1.154906
 C         2.763019        -1.532231        -1.451039
 C         2.108115        -1.363930        -0.079868
 O         1.561025        -2.530275         0.547085
 C         3.235611        -0.450474         0.479045
 O         2.368387         0.393812         1.111076
 H        -0.368352        -0.385987         1.029398
 H        -0.224071         1.262781         0.318735
 H        -0.549070        -0.372256        -0.506536
 H         1.467788         0.776178        -2.180734
 H         2.326757         1.937209        -1.028867
 H         4.388863         0.204063        -1.407140
 H         2.176747        -1.760517        -2.356406
 H         3.607290        -2.216000        -1.351263
 H         1.078495        -2.224677         1.399839
 H         4.183114        -0.741703         0.985758
