19
Iteration:  2442
 C        -0.046120         0.319865         0.449322
 C         1.335341         0.057995         0.002545
 C         2.031127         0.741848        -1.192584
 C         3.374887        -0.100938        -1.133237
 C         2.784797        -1.538124        -1.511437
 C         2.133910        -1.405844        -0.195568
 O         1.567804        -2.466379         0.553734
 C         3.245542        -0.541196         0.408556
 O         2.346361         0.403911         1.080799
 H        -0.078502        -0.052382         1.445773
 H        -0.400433         1.293298         0.308191
 H        -0.654018        -0.310453        -0.237574
 H         1.555819         0.553887        -2.173496
 H         2.143724         1.757653        -0.901565
 H         4.200294         0.307744        -1.656634
 H         2.358602        -1.796430        -2.452753
 H         3.685726        -2.224358        -1.482750
 H         1.970389        -2.358592         1.479537
 H         4.206630        -0.741378         0.924465
