19
Iteration:  3211charge 0 multiplicity 1
 C        -0.000058         0.206684         0.424214
 C         1.407276         0.055826         0.001257
 C         2.159451         0.771899        -1.216216
 C         3.353524        -0.105627        -1.139320
 C         2.862035        -1.477543        -1.406727
 C         2.036232        -1.415944        -0.120105
 O         1.477709        -2.530522         0.596105
 C         3.223240        -0.375828         0.368448
 O         2.317112         0.436113         1.079971
 H        -0.149908        -0.398865         1.280287
 H        -0.443432         1.260582         0.501878
 H        -0.498815        -0.379428        -0.431751
 H         1.534522         0.652635        -2.099227
 H         2.051918         1.839979        -1.134299
 H         4.210850         0.168302        -1.675808
 H         2.464272        -1.560057        -2.484023
 H         3.732525        -2.097887        -1.284891
 H         1.691865        -3.312740        -0.010335
 H         4.117522        -0.736291         0.931515
