19
Iteration:  1871charge 0 multiplicity 1
 C        -0.008627         0.237124         0.586761
 C         1.464776         0.084335         0.048462
 C         1.992243         0.731166        -1.192325
 C         3.292409        -0.053299        -1.258696
 C         2.645762        -1.572877        -1.513010
 C         2.112584        -1.381526        -0.089268
 O         1.525440        -2.503721         0.471875
 C         3.326753        -0.474493         0.367311
 O         2.526417         0.407007         1.078147
 H        -0.202611        -0.214637         1.578349
 H        -0.307786         1.330548         0.554231
 H        -0.683191        -0.121496        -0.144640
 H         1.501838         0.596937        -2.094012
 H         2.227192         1.739628        -0.801780
 H         4.189792         0.257895        -1.780238
 H         2.061406        -1.497711        -2.442460
 H         3.455516        -2.357760        -1.577788
 H         0.760713        -2.382774         1.040373
 H         4.199927        -0.816844         0.813183
