19
Iteration:  3879charge 0 multiplicity 1
 C        -0.028581         0.257189         0.295169
 C         1.370881         0.088604        -0.084766
 C         2.111726         0.779693        -1.241132
 C         3.287645        -0.076604        -1.118367
 C         2.829007        -1.527125        -1.453588
 C         2.127396        -1.421034        -0.054690
 O         1.553818        -2.555973         0.503160
 C         3.206555        -0.506346         0.503287
 O         2.337300         0.470803         1.109482
 H        -0.346500        -0.404373         1.246828
 H        -0.105179         1.328391         0.548933
 H        -0.745701        -0.081821        -0.469676
 H         1.653067         0.601277        -2.204037
 H         2.153148         1.798513        -0.920086
 H         4.378570         0.253807        -1.418519
 H         2.220398        -1.534631        -2.417150
 H         3.558396        -2.271928        -1.460680
 H         2.068163        -2.861727         1.203943
 H         3.981738        -0.762320         1.272849
