19
Iteration:  3741charge 0 multiplicity 1
 C        -0.129015         0.236375         0.353202
 C         1.366153         0.006540         0.002769
 C         2.022074         0.731859        -1.211424
 C         3.361621        -0.073381        -1.155236
 C         2.995554        -1.553718        -1.472689
 C         2.172412        -1.399477        -0.139871
 O         1.449580        -2.395773         0.565664
 C         3.283918        -0.461069         0.462406
 O         2.303051         0.398701         1.108345
 H        -0.667969        -0.355860         1.054428
 H        -0.088108         1.265522         0.743404
 H        -0.720063         0.382253        -0.558269
 H         1.530088         0.505124        -2.213802
 H         2.369736         1.787948        -0.911554
 H         4.252941         0.229166        -1.700763
 H         2.422275        -1.621577        -2.395772
 H         3.719582        -2.399921        -1.376332
 H         2.000090        -3.194805         0.747834
 H         4.192858        -0.653088         1.099634
