19
Iteration:  1491charge 0 multiplicity 1
 C         0.010218         0.379492         0.511100
 C         1.410747         0.114306         0.028591
 C         1.995283         0.764802        -1.158914
 C         3.319688        -0.138345        -1.207862
 C         2.663952        -1.554341        -1.601866
 C         2.019092        -1.340228        -0.185190
 O         1.731331        -2.475589         0.617986
 C         3.212195        -0.582413         0.351077
 O         2.477133         0.361435         1.139970
 H        -0.044357        -0.184801         1.451669
 H        -0.282889         1.443588         0.547870
 H        -0.711394        -0.087197        -0.142798
 H         1.298062         0.526306        -2.010743
 H         2.198704         1.832500        -0.932981
 H         4.386848         0.249483        -1.609570
 H         1.854168        -1.710433        -2.417959
 H         3.518981        -2.259421        -1.724751
 H         0.807277        -2.664078         0.442096
 H         4.011842        -1.203337         0.771535
