19
Iteration:  4081charge 0 multiplicity 1
 C        -0.028935         0.104400         0.296318
 C         1.420867         0.010642        -0.106600
 C         2.150332         0.768894        -1.116119
 C         3.361243        -0.125148        -1.159219
 C         2.736342        -1.466983        -1.456725
 C         2.146439        -1.361058        -0.080302
 O         1.472752        -2.358210         0.601696
 C         3.226133        -0.468068         0.547892
 O         2.335722         0.417625         1.042863
 H        -0.110071        -0.418976         1.283208
 H        -0.581907         1.155814         0.235055
 H        -0.681924        -0.376756        -0.610220
 H         1.854856         0.769856        -2.164026
 H         2.341519         1.875721        -0.984582
 H         4.296664         0.310388        -1.401211
 H         2.125204        -1.515691        -2.365543
 H         3.522858        -2.352121        -1.527026
 H         2.082845        -3.120079         0.372459
 H         3.993468        -0.988690         1.092363
