19
Iteration:  3284
 C        -0.067880         0.221697         0.324498
 C         1.369843         0.088041        -0.007911
 C         2.065194         0.800604        -1.202911
 C         3.337312        -0.105123        -1.133620
 C         2.801201        -1.458049        -1.470396
 C         2.161864        -1.448639        -0.171503
 O         1.547099        -2.446398         0.585626
 C         3.185169        -0.548916         0.481881
 O         2.357283         0.388419         1.065094
 H        -0.206069        -0.349636         1.212880
 H        -0.107875         1.322515         0.595339
 H        -0.783325        -0.103841        -0.418722
 H         1.517183         0.903436        -2.183433
 H         2.317807         1.938422        -0.910010
 H         4.312239         0.197837        -1.623399
 H         2.147863        -1.783343        -2.248965
 H         3.761282        -2.150334        -1.540650
 H         2.264851        -2.898944         1.140570
 H         4.000365        -0.909141         1.062702
