19
Iteration:  1330charge 0 multiplicity 1
 C         0.036951         0.356966         0.415849
 C         1.446647         0.048169         0.091787
 C         1.942714         0.775450        -1.075592
 C         3.252233        -0.155777        -1.224670
 C         2.711607        -1.554320        -1.556137
 C         2.067967        -1.347245        -0.090934
 O         1.564252        -2.501894         0.612229
 C         3.306535        -0.498292         0.376737
 O         2.512158         0.405611         1.046065
 H        -0.233470        -0.354094         1.204564
 H        -0.166127         1.447558         0.450585
 H        -0.689981         0.048632        -0.486408
 H         1.155444         0.588139        -1.859994
 H         2.026891         1.816167        -0.853911
 H         4.128114         0.259086        -1.863291
 H         2.261117        -1.435538        -2.575032
 H         3.462948        -2.259884        -1.349113
 H         1.500054        -3.216494         0.006818
 H         4.097857        -1.016304         0.897688
