19
Iteration:   970
 C        -0.057405         0.249895         0.463856
 C         1.392887         0.060761        -0.019805
 C         2.074779         0.719105        -1.193073
 C         3.264608        -0.129346        -1.166861
 C         2.850374        -1.498257        -1.462840
 C         2.156939        -1.387860        -0.085125
 O         1.641413        -2.496063         0.524313
 C         3.193078        -0.507606         0.353425
 O         2.366059         0.470890         1.097688
 H        -0.157311        -0.342238         1.340666
 H        -0.433033         1.199691         0.643087
 H        -0.678317        -0.175455        -0.343197
 H         1.275074         0.467909        -1.929989
 H         2.300632         1.756501        -0.944201
 H         4.156646         0.240474        -1.743248
 H         2.412254        -1.527766        -2.436113
 H         3.547637        -2.384331        -1.662775
 H         0.747319        -2.229304         0.929590
 H         4.148246        -0.847784         0.859748
