19
Iteration:   916charge 0 multiplicity 1
 C        -0.035033         0.165441         0.415681
 C         1.407905         0.094497         0.032943
 C         1.993359         0.733477        -1.209030
 C         3.367809        -0.128961        -1.103405
 C         2.807160        -1.566421        -1.615716
 C         2.121170        -1.380548        -0.105086
 O         1.536310        -2.422156         0.538148
 C         3.221828        -0.504197         0.415659
 O         2.385094         0.496596         1.113815
 H        -0.464713        -0.388157         1.257530
 H        -0.326811         1.192120         0.585938
 H        -0.530969        -0.269738        -0.552449
 H         1.235869         0.677068        -1.983873
 H         2.289324         1.755159        -1.040935
 H         4.263348         0.383759        -1.547620
 H         2.152586        -1.635712        -2.458619
 H         3.612684        -2.368608        -1.471026
 H         2.244999        -2.806597         1.115090
 H         4.102520        -0.849793         1.031372
