19
Iteration:  1235
 C         0.049401         0.195078         0.439300
 C         1.471201        -0.004807         0.121554
 C         2.011182         0.769388        -1.178823
 C         3.216820        -0.074181        -1.298412
 C         2.710786        -1.537824        -1.528314
 C         2.147230        -1.412087        -0.066539
 O         1.512838        -2.452479         0.575255
 C         3.302485        -0.462679         0.362650
 O         2.481012         0.428129         1.120865
 H        -0.273731        -0.533142         1.146540
 H        -0.054828         1.241143         0.676368
 H        -0.648082         0.089188        -0.375704
 H         1.362607         0.613271        -2.113060
 H         2.390516         1.827432        -1.009469
 H         4.045707         0.307576        -1.873146
 H         1.990239        -1.606143        -2.347408
 H         3.557812        -2.371259        -1.467361
 H         0.616256        -2.265689         0.336908
 H         4.145584        -0.754942         1.018085
