19
Iteration:  2154charge 0 multiplicity 1
 C        -0.031121         0.292925         0.522819
 C         1.450048         0.066317         0.051708
 C         2.014564         0.705591        -1.163822
 C         3.281758        -0.129431        -1.207997
 C         2.826072        -1.572175        -1.519415
 C         2.082175        -1.388760        -0.193623
 O         1.490243        -2.414208         0.513689
 C         3.240690        -0.494885         0.371519
 O         2.431324         0.437736         1.069671
 H        -0.189709        -0.561902         1.226429
 H        -0.157988         1.261175         1.110720
 H        -0.726866         0.260148        -0.311759
 H         1.383818         0.348187        -1.978413
 H         2.290237         1.825245        -1.030046
 H         4.291872         0.362247        -1.528160
 H         2.165387        -1.698389        -2.465948
 H         3.486981        -2.497264        -1.447279
 H         2.080958        -2.827051         1.125350
 H         4.190037        -0.764711         0.964281
