19
Iteration:  4606charge 0 multiplicity 1
 C        -0.044489         0.319821         0.365655
 C         1.435562         0.082766         0.043373
 C         2.105157         0.759290        -1.230977
 C         3.365412        -0.085098        -1.144119
 C         2.838749        -1.551405        -1.536667
 C         2.145099        -1.448429        -0.138274
 O         1.474555        -2.556556         0.511554
 C         3.300894        -0.424656         0.412182
 O         2.301816         0.352652         1.193939
 H        -0.646366        -0.523915         0.808649
 H        -0.110591         1.059963         1.166790
 H        -0.590307         0.701434        -0.448458
 H         1.596248         0.633972        -2.228136
 H         2.282351         1.915648        -1.147658
 H         4.321379         0.270252        -1.674445
 H         2.147567        -1.607073        -2.294585
 H         3.588487        -2.357651        -1.384008
 H         0.895027        -2.188006         1.154518
 H         4.272973        -0.644815         0.846488
