19
Iteration:   517charge 0 multiplicity 1
 C        -0.084114         0.221333         0.510305
 C         1.350701         0.093126         0.017225
 C         2.098083         0.828813        -1.145158
 C         3.317572        -0.119276        -1.180597
 C         2.856992        -1.599870        -1.475518
 C         2.138441        -1.389534        -0.141434
 O         1.575043        -2.552352         0.519875
 C         3.201456        -0.460963         0.296202
 O         2.321782         0.470644         1.042996
 H        -0.174821        -0.504933         1.318592
 H        -0.494446         1.206317         0.828046
 H        -0.806495        -0.161827        -0.315357
 H         1.667177         0.876054        -2.172142
 H         2.544167         1.921576        -0.871640
 H         4.360130         0.338208        -1.590854
 H         2.274767        -1.943081        -2.388281
 H         3.671426        -2.290568        -1.284263
 H         1.935629        -2.458808         1.383347
 H         4.051850        -0.725457         0.846592
