19
Iteration:    16
 C        -0.072082         0.100109         0.358107
 C         1.367109         0.120257         0.008969
 C         2.092773         0.673623        -1.286449
 C         3.415387        -0.112999        -1.058924
 C         2.734463        -1.483970        -1.462086
 C         2.022828        -1.294300        -0.149397
 O         1.677610        -2.596861         0.469575
 C         3.276005        -0.417049         0.419047
 O         2.366149         0.531763         1.201085
 H        -0.189832        -0.445790         1.336332
 H        -0.471385         1.164900         0.589007
 H        -0.741058        -0.157838        -0.463260
 H         1.569054         0.129296        -2.203421
 H         2.165118         1.797795        -1.437537
 H         4.353251         0.410611        -1.579729
 H         2.154813        -1.392487        -2.429417
 H         3.310993        -2.386384        -1.315624
 H         0.907698        -2.539326         1.150801
 H         4.146576        -0.730451         1.012679
