19
Iteration:   372charge 0 multiplicity 1
 C        -0.043343         0.209794         0.358550
 C         1.437332         0.014388         0.050352
 C         1.993485         0.775383        -1.140408
 C         3.298263        -0.002809        -1.214465
 C         2.882056        -1.509099        -1.451376
 C         2.110128        -1.451270        -0.131994
 O         1.460967        -2.448740         0.616963
 C         3.310387        -0.396490         0.305997
 O         2.364404         0.371146         1.102417
 H        -0.268724        -0.480062         1.225215
 H        -0.329441         1.248656         0.712084
 H        -0.681219        -0.021399        -0.448517
 H         1.435961         0.677089        -2.102173
 H         2.185860         1.880198        -0.877653
 H         4.129501         0.291700        -1.785260
 H         2.333207        -2.099946        -2.183591
 H         3.759688        -2.096320        -1.288690
 H         2.079190        -3.213304         0.383025
 H         4.218596        -0.784075         0.878974
