19
Iteration:  2598
 C        -0.071833         0.307989         0.346415
 C         1.325541         0.086221         0.001133
 C         2.033880         0.733260        -1.181708
 C         3.356014        -0.149744        -1.185479
 C         2.779644        -1.474592        -1.473774
 C         2.159816        -1.428795        -0.048646
 O         1.620719        -2.582679         0.519180
 C         3.220716        -0.464015         0.446861
 O         2.360534         0.455265         1.051580
 H        -0.585486        -0.357570         1.122976
 H        -0.059934         1.397300         0.707403
 H        -0.636292         0.233875        -0.557860
 H         1.343305         0.679487        -2.046037
 H         2.146450         1.848705        -0.972596
 H         4.372663         0.216555        -1.646916
 H         2.253301        -1.845493        -2.396901
 H         3.565664        -2.211310        -1.155307
 H         2.055839        -2.795859         1.335395
 H         4.131618        -0.619960         0.955326
