19
Iteration:   721charge 0 multiplicity 1
 C        -0.041536         0.144247         0.365830
 C         1.399377        -0.068476         0.099434
 C         2.139608         0.854338        -1.232689
 C         3.335561        -0.064694        -1.206993
 C         2.722040        -1.490845        -1.531124
 C         2.181076        -1.442674        -0.084272
 O         1.519620        -2.470476         0.638114
 C         3.281584        -0.437398         0.452618
 O         2.313802         0.448949         1.044395
 H        -0.273426        -0.453839         1.285873
 H        -0.307499         1.295801         0.595676
 H        -0.663700        -0.068927        -0.531136
 H         1.534903         1.000764        -2.244584
 H         2.145883         1.925942        -0.982115
 H         4.353375         0.173685        -1.719891
 H         1.854578        -1.485922        -2.303559
 H         3.489089        -2.291907        -1.822278
 H         2.032233        -3.269537         0.672300
 H         4.219028        -0.580931         1.121828
