19
Iteration:  4182
 C        -0.037376         0.330979         0.369620
 C         1.364270        -0.003821        -0.060011
 C         2.118259         0.758113        -1.225565
 C         3.357460        -0.106308        -1.056006
 C         2.843334        -1.555850        -1.489725
 C         2.138581        -1.414050        -0.075652
 O         1.563251        -2.487036         0.513412
 C         3.178282        -0.508217         0.505796
 O         2.264497         0.456705         1.048457
 H        -0.625092        -0.401663         1.026261
 H        -0.004414         1.316784         0.860448
 H        -0.631814         0.374195        -0.510399
 H         1.673224         0.615465        -2.228304
 H         2.076641         1.842306        -1.025080
 H         4.401175         0.108144        -1.465748
 H         2.186907        -1.681214        -2.355842
 H         3.635985        -2.273514        -1.378280
 H         2.370371        -2.976294         0.699288
 H         4.045729        -0.614970         1.105761
