19
Iteration:  1662
 C         0.108156         0.351368         0.544229
 C         1.442773         0.026997         0.051329
 C         2.071274         0.834461        -1.201071
 C         3.239024        -0.066902        -1.181524
 C         2.480614        -1.490874        -1.552912
 C         2.083339        -1.453244        -0.031560
 O         1.646321        -2.632212         0.487121
 C         3.264418        -0.526398         0.324936
 O         2.520848         0.414029         1.067868
 H        -0.234618        -0.122400         1.503169
 H        -0.208802         1.412144         0.447540
 H        -0.456795        -0.011917        -0.290993
 H         1.468518         0.753820        -2.078874
 H         2.251874         1.917315        -0.862075
 H         4.140030         0.225679        -1.765153
 H         1.717989        -1.395660        -2.399988
 H         3.234242        -2.370270        -1.544679
 H         0.876820        -2.498173         1.120742
 H         4.207335        -0.699571         0.886723
