19
Iteration:   857
 C        -0.028167         0.197822         0.330293
 C         1.393895         0.015046         0.069453
 C         2.008864         0.674994        -1.130222
 C         3.319079        -0.093898        -1.189719
 C         2.796985        -1.461231        -1.469633
 C         2.194749        -1.394108        -0.097588
 O         1.510839        -2.408753         0.618842
 C         3.305030        -0.455933         0.398136
 O         2.367978         0.428877         1.071735
 H        -0.371465        -0.531780         1.048454
 H        -0.202991         1.265767         0.432075
 H        -0.578407         0.153022        -0.550519
 H         1.248767         0.557749        -1.937984
 H         2.114629         1.816344        -0.993120
 H         4.068450         0.288209        -1.815503
 H         2.225822        -1.717467        -2.425238
 H         3.672584        -2.154306        -1.516625
 H         1.564332        -3.294485         0.123764
 H         4.247195        -0.658376         1.007769
