19
Iteration:  3274charge 0 multiplicity 1
 C        -0.022644         0.297133         0.349675
 C         1.406847         0.047568        -0.053668
 C         2.055616         0.833473        -1.218690
 C         3.297187        -0.015103        -1.117963
 C         2.810002        -1.541097        -1.513187
 C         2.125508        -1.417682        -0.092218
 O         1.541310        -2.528296         0.600481
 C         3.224869        -0.510952         0.442396
 O         2.337440         0.370457         1.122108
 H        -0.327377        -0.246260         1.203029
 H        -0.453699         1.366217         0.414720
 H        -0.550305        -0.079621        -0.560237
 H         1.618413         0.597065        -2.247103
 H         2.192162         2.000110        -1.117284
 H         4.289434         0.119940        -1.527180
 H         2.191979        -1.529294        -2.350592
 H         3.750255        -2.211035        -1.537885
 H         2.293719        -3.133429         0.961786
 H         4.094172        -0.844272         0.988562
