19
Iteration:  4265
 C        -0.103343         0.062779         0.345306
 C         1.428517         0.046420        -0.033116
 C         2.174158         0.795560        -1.204486
 C         3.409577        -0.052421        -1.044898
 C         2.804986        -1.463231        -1.492798
 C         2.095102        -1.362445        -0.111328
 O         1.387304        -2.399938         0.598613
 C         3.245271        -0.514543         0.457654
 O         2.402957         0.446650         1.042825
 H        -0.265612        -0.141275         1.384646
 H        -0.629192         0.984032        -0.048407
 H        -0.745916        -0.708474        -0.217335
 H         1.679788         0.730235        -2.246455
 H         2.534509         1.827198        -0.939142
 H         4.280795         0.287627        -1.524844
 H         2.346088        -1.497097        -2.549678
 H         3.583844        -2.338245        -1.450884
 H         1.748949        -3.349546         0.570823
 H         4.100700        -0.842477         1.107445
