19
Iteration:  1905charge 0 multiplicity 1
 C         0.008769         0.258321         0.478536
 C         1.390454         0.042199         0.061376
 C         2.016358         0.774874        -1.157890
 C         3.258070        -0.066525        -1.237213
 C         2.709079        -1.524249        -1.581586
 C         2.135637        -1.425804        -0.187878
 O         1.473454        -2.413698         0.623194
 C         3.305668        -0.532286         0.309081
 O         2.506990         0.338543         1.140510
 H        -0.261763        -0.177861         1.434727
 H        -0.187071         1.356280         0.535676
 H        -0.513067        -0.213371        -0.352502
 H         1.392538         0.843760        -1.996013
 H         2.048841         1.833703        -0.931375
 H         4.113461         0.366555        -1.722801
 H         2.110213        -1.434939        -2.523926
 H         3.488244        -2.372399        -1.727641
 H         1.973433        -2.567329         1.415205
 H         4.193750        -0.919703         0.777484
