19
Iteration:  3379
 C        -0.057805         0.369605         0.406906
 C         1.408212         0.072432        -0.039691
 C         2.042591         0.763110        -1.228200
 C         3.354146        -0.067928        -1.153074
 C         2.840829        -1.475213        -1.473163
 C         2.149286        -1.441613        -0.117119
 O         1.630538        -2.616714         0.563268
 C         3.237058        -0.506900         0.452369
 O         2.328590         0.391903         1.081154
 H        -0.440595        -0.351939         1.273415
 H        -0.093911         1.403252         0.718489
 H        -0.808027         0.077163        -0.317598
 H         1.499647         0.772109        -2.175949
 H         2.096390         1.769187        -0.938524
 H         4.242527         0.331003        -1.779081
 H         2.233228        -1.687508        -2.420326
 H         3.583361        -2.217625        -1.567961
 H         0.671418        -2.437211         0.827885
 H         3.922134        -0.796052         1.232402
