19
Iteration:   893
 C        -0.072519         0.169837         0.397884
 C         1.377514         0.056128        -0.061474
 C         2.094754         0.792344        -1.230569
 C         3.410700        -0.107603        -1.133754
 C         2.758055        -1.427395        -1.455981
 C         2.055411        -1.375487        -0.073895
 O         1.579934        -2.425991         0.639414
 C         3.225783        -0.499893         0.341846
 O         2.343028         0.372229         1.056713
 H        -0.257396        -0.442967         1.321170
 H        -0.294414         1.134910         0.811593
 H        -0.782062        -0.256979        -0.395043
 H         1.534191         0.752402        -2.200905
 H         2.407792         1.820021        -0.977273
 H         4.267305         0.225724        -1.708449
 H         2.094016        -1.574173        -2.291565
 H         3.580782        -2.247304        -1.360284
 H         2.278126        -3.132623         0.608984
 H         4.136863        -0.873886         0.986077
