19
Iteration:  1632
 C        -0.027602         0.425246         0.573424
 C         1.380130         0.102984         0.125802
 C         2.067325         0.785241        -1.148884
 C         3.253961        -0.139078        -1.245330
 C         2.597355        -1.522228        -1.610294
 C         2.097359        -1.427410        -0.115512
 O         1.670108        -2.526247         0.514272
 C         3.265368        -0.584256         0.282306
 O         2.510810         0.370876         1.110287
 H        -0.467139        -0.314861         1.288961
 H        -0.330954         1.521284         0.682380
 H        -0.639168         0.075388        -0.306696
 H         1.427730         0.569642        -2.056406
 H         2.399636         1.831634        -0.841326
 H         4.183082         0.278581        -1.861000
 H         2.037606        -1.599767        -2.509769
 H         3.350524        -2.363933        -1.616399
 H         1.334739        -2.431093         1.397319
 H         4.146022        -0.936953         0.830315
