19
Iteration:  1110charge 0 multiplicity 1
 C         0.032261         0.188346         0.440321
 C         1.432206         0.029983         0.045569
 C         1.978838         0.774441        -1.207101
 C         3.311662        -0.113412        -1.249307
 C         2.764366        -1.494200        -1.451196
 C         2.088451        -1.365661        -0.109618
 O         1.623707        -2.453304         0.559000
 C         3.240876        -0.507864         0.389859
 O         2.416916         0.434122         1.075355
 H        -0.162890        -0.139002         1.533198
 H        -0.116203         1.251246         0.789732
 H        -0.787647        -0.103833        -0.244444
 H         1.418680         0.720350        -2.192690
 H         2.143099         1.791786        -0.817949
 H         4.225671         0.305220        -1.722652
 H         2.257024        -1.854343        -2.362535
 H         3.351855        -2.333745        -1.382002
 H         0.721164        -2.581122         0.322887
 H         4.059153        -1.052841         0.963878
