19
Iteration:  1768charge 0 multiplicity 1
 C         0.024751         0.286470         0.479978
 C         1.447706         0.086084         0.055882
 C         2.019330         0.827315        -1.156546
 C         3.256090        -0.094681        -1.232707
 C         2.554719        -1.484688        -1.530249
 C         2.078431        -1.357247        -0.099341
 O         1.518931        -2.514751         0.622821
 C         3.344141        -0.528556         0.347693
 O         2.546178         0.353351         1.047843
 H        -0.366156        -0.619615         1.028257
 H        -0.098885         1.252832         1.007133
 H        -0.635882         0.133795        -0.439950
 H         1.532812         0.785468        -2.202170
 H         2.240000         1.873837        -0.870768
 H         4.201521         0.112235        -1.702980
 H         1.705250        -1.714560        -2.172992
 H         3.212337        -2.282834        -1.674399
 H         2.213113        -3.118728         0.219738
 H         4.188659        -0.819290         1.045539
