19
Iteration:  2549
 C        -0.065198         0.171727         0.423797
 C         1.363959        -0.002021        -0.000544
 C         2.091177         0.752398        -1.208008
 C         3.293804        -0.121490        -1.208128
 C         2.881925        -1.565916        -1.468193
 C         2.086739        -1.369270        -0.161861
 O         1.578890        -2.402967         0.612400
 C         3.332946        -0.461384         0.432862
 O         2.346306         0.427669         1.062421
 H        -0.346590        -0.613087         1.095274
 H        -0.107944         1.039797         1.044948
 H        -0.833752         0.130470        -0.432767
 H         1.563612         0.783801        -2.172610
 H         2.162263         1.783942        -0.936040
 H         4.003640         0.390814        -1.772749
 H         2.332692        -1.701412        -2.393842
 H         3.730515        -2.236755        -1.351056
 H         0.608226        -2.111240         0.676342
 H         4.200628        -0.877162         1.066744
