19
Iteration:  4166charge 0 multiplicity 1
 C        -0.121751         0.357510         0.346369
 C         1.352533         0.087164        -0.074677
 C         2.051970         0.720045        -1.282948
 C         3.432001        -0.103722        -1.165325
 C         2.904665        -1.496668        -1.369915
 C         2.164196        -1.432934        -0.125245
 O         1.524355        -2.541235         0.570224
 C         3.254728        -0.425046         0.512194
 O         2.263241         0.390946         1.089907
 H        -0.337573        -0.420775         1.028380
 H        -0.034788         1.154350         1.130366
 H        -0.951559         0.667919        -0.393254
 H         1.633916         0.509880        -2.274785
 H         2.402527         1.728333        -1.089887
 H         4.260014         0.412227        -1.560054
 H         2.300337        -1.579880        -2.304218
 H         3.627380        -2.309674        -1.592595
 H         1.908162        -3.476831         0.598330
 H         4.057624        -0.920955         1.151367
