19
Iteration:  3758charge 0 multiplicity 1
 C        -0.024194         0.186183         0.288959
 C         1.422574         0.001424         0.027519
 C         2.095512         0.720403        -1.262988
 C         3.388577        -0.079767        -1.127335
 C         2.859550        -1.481159        -1.414743
 C         2.094930        -1.389585        -0.059041
 O         1.409960        -2.422657         0.570138
 C         3.265139        -0.407096         0.369462
 O         2.342106         0.425223         1.147657
 H        -0.392034        -0.710752         0.929529
 H        -0.277948         1.149225         0.751196
 H        -0.630932        -0.085637        -0.581573
 H         1.530035         0.580199        -2.158737
 H         2.017814         1.731274        -1.037109
 H         4.332713         0.449931        -1.464052
 H         2.392881        -1.813806        -2.406121
 H         3.725228        -2.096349        -1.211140
 H         1.816784        -3.244015         0.284567
 H         4.155857        -0.763540         0.893659
