19
Iteration:   939
 C        -0.013539         0.214923         0.387750
 C         1.420391        -0.030605        -0.015274
 C         2.036856         0.749338        -1.203966
 C         3.299896         0.041662        -1.173162
 C         2.761038        -1.510319        -1.436925
 C         2.174365        -1.428173        -0.051433
 O         1.435659        -2.521400         0.510856
 C         3.357046        -0.426053         0.403013
 O         2.405621         0.394378         1.067762
 H        -0.380878        -0.255992         1.289639
 H        -0.207965         1.286133         0.545787
 H        -0.687809        -0.283298        -0.485167
 H         1.387495         0.512971        -2.033706
 H         1.922198         1.778029        -1.074072
 H         4.192354         0.323120        -1.840062
 H         2.142269        -1.690923        -2.329818
 H         3.654277        -2.100203        -1.247089
 H         1.751127        -2.462595         1.400405
 H         4.268079        -0.573121         0.932868
