19
Iteration:  1448charge 0 multiplicity 1
 C         0.035046         0.367398         0.472977
 C         1.421568        -0.005875         0.013921
 C         2.020100         0.768306        -1.102407
 C         3.229681        -0.067869        -1.211658
 C         2.646650        -1.578565        -1.544223
 C         2.161686        -1.461623        -0.081917
 O         1.605297        -2.562638         0.497809
 C         3.276208        -0.514448         0.366171
 O         2.473453         0.456095         1.053786
 H        -0.076004        -0.201583         1.378052
 H         0.051208         1.437740         0.618186
 H        -0.749003         0.264865        -0.234519
 H         1.427666         0.752562        -2.042306
 H         2.227012         1.756878        -0.718851
 H         4.102820         0.501719        -1.781307
 H         1.798673        -1.400636        -2.350085
 H         3.236116        -2.505852        -1.508739
 H         1.012637        -2.351688         1.256468
 H         4.161404        -0.812191         0.936751
