19
Iteration:  3932
 C        -0.005127         0.187629         0.255193
 C         1.414778         0.023707        -0.087368
 C         2.053096         0.799585        -1.223297
 C         3.321296        -0.044691        -1.156775
 C         2.873741        -1.480693        -1.446300
 C         2.136070        -1.451914        -0.154859
 O         1.514093        -2.441567         0.614463
 C         3.232071        -0.542436         0.472922
 O         2.377409         0.396436         1.165895
 H        -0.459397        -0.720849         0.789233
 H        -0.228950         1.003328         0.897966
 H        -0.568096         0.328799        -0.654976
 H         1.357190         0.435707        -1.972107
 H         2.131730         1.849489        -0.907478
 H         4.265235         0.364687        -1.703881
 H         2.229483        -1.562068        -2.361804
 H         3.512735        -2.310865        -1.463053
 H         1.013956        -1.946438         1.222906
 H         4.110799        -0.782533         1.094509
