19
Iteration:  2866charge 0 multiplicity 1
 C         0.027197         0.202375         0.303143
 C         1.459833         0.009452         0.082972
 C         1.945568         0.669372        -1.157880
 C         3.302782        -0.012543        -1.174124
 C         2.798315        -1.492113        -1.470718
 C         2.088600        -1.355083        -0.083083
 O         1.523257        -2.453081         0.513743
 C         3.323777        -0.514140         0.417112
 O         2.410369         0.408437         1.072475
 H        -0.089188        -0.286734         1.298284
 H        -0.227845         1.198953         0.363634
 H        -0.628752        -0.237741        -0.497507
 H         1.292748         0.362972        -1.979801
 H         2.063273         1.651075        -0.802802
 H         4.253575         0.368984        -1.612156
 H         2.307356        -1.841364        -2.367074
 H         3.673413        -2.177775        -1.409408
 H         0.690124        -2.025774         0.968674
 H         4.312840        -0.553323         0.987901
