19
Iteration:   207
 C         0.023951         0.188988         0.443093
 C         1.429989         0.024618        -0.045671
 C         2.035471         0.854662        -1.182418
 C         3.339162        -0.069985        -1.234005
 C         2.850653        -1.552474        -1.411080
 C         2.193227        -1.439141        -0.103399
 O         1.497408        -2.519665         0.484459
 C         3.204518        -0.414340         0.433821
 O         2.264085         0.412309         1.070274
 H        -0.057644        -0.453874         1.361603
 H        -0.189401         1.251952         0.642010
 H        -0.627332        -0.202435        -0.378256
 H         1.461301         0.810611        -2.094163
 H         2.214124         1.916343        -0.935711
 H         4.218814         0.223179        -1.663083
 H         2.354597        -1.745239        -2.378609
 H         3.726319        -2.253528        -1.361816
 H         1.638453        -2.576330         1.405742
 H         4.080843        -0.528899         1.055330
