19
Iteration:  2827
 C        -0.074837         0.143675         0.371708
 C         1.394559         0.078416        -0.064492
 C         2.112465         0.775780        -1.172043
 C         3.313807        -0.103680        -1.193778
 C         2.773460        -1.534672        -1.525012
 C         2.120343        -1.352443        -0.095289
 O         1.569906        -2.431627         0.564133
 C         3.283431        -0.519723         0.467595
 O         2.360115         0.409258         1.071980
 H        -0.191838        -0.439955         1.282643
 H        -0.443492         1.200708         0.743717
 H        -0.728837        -0.235168        -0.373122
 H         1.587109         0.856398        -2.138698
 H         2.255817         1.855553        -0.906938
 H         4.230537         0.308682        -1.549025
 H         2.100105        -1.640344        -2.392263
 H         3.624285        -2.220438        -1.425204
 H         1.416901        -2.502431         1.496566
 H         4.126370        -0.839373         0.954049
