19
Iteration:  1746
 C         0.037887         0.223177         0.556905
 C         1.447338         0.080654         0.114734
 C         2.094507         0.772404        -1.157543
 C         3.291781        -0.198567        -1.244174
 C         2.602615        -1.491264        -1.586801
 C         2.136940        -1.440797        -0.104781
 O         1.472411        -2.446963         0.519659
 C         3.288831        -0.508506         0.282627
 O         2.448154         0.496529         1.116493
 H        -0.289347        -0.573752         1.269435
 H         0.115566         1.233140         0.954087
 H        -0.746011        -0.046748        -0.215779
 H         1.388630         0.795522        -2.104849
 H         2.425081         1.754951        -0.822648
 H         4.125502         0.089480        -1.826252
 H         1.817308        -1.455072        -2.370661
 H         3.238357        -2.235230        -1.917148
 H         2.105601        -2.983665         0.984733
 H         4.224364        -0.778031         0.878937
