19
Iteration:  3059
 C        -0.118539         0.301549         0.347473
 C         1.397611         0.073129         0.100909
 C         2.015500         0.701631        -1.228085
 C         3.286953        -0.040286        -1.197510
 C         2.918326        -1.540152        -1.470877
 C         2.144093        -1.397620        -0.106949
 O         1.543893        -2.548852         0.569170
 C         3.262426        -0.482117         0.404215
 O         2.405310         0.415392         1.142296
 H        -0.192180         0.042730         1.335658
 H        -0.369965         1.358265         0.475467
 H        -0.653915        -0.127736        -0.514757
 H         1.441090         0.445211        -2.162978
 H         2.265408         1.717076        -0.989363
 H         4.190475         0.283597        -1.680564
 H         2.489044        -1.514802        -2.545821
 H         3.771575        -2.098116        -1.278910
 H         0.656880        -2.767037         0.226158
 H         4.274976        -0.766739         0.909983
