19
Iteration:  3157charge 0 multiplicity 1
 C        -0.026725         0.093296         0.315969
 C         1.464879        -0.043289         0.015067
 C         2.101096         0.752101        -1.239806
 C         3.362088        -0.018003        -1.193473
 C         2.853214        -1.496496        -1.440497
 C         2.060121        -1.363183        -0.139510
 O         1.364121        -2.434027         0.614404
 C         3.316727        -0.436536         0.389032
 O         2.371977         0.444348         1.127939
 H        -0.360508        -0.617648         0.995443
 H        -0.229762         1.104836         0.802367
 H        -0.538827         0.099611        -0.706029
 H         1.173110         0.673927        -1.897839
 H         2.182527         1.800603        -0.866488
 H         4.236461         0.334084        -1.632399
 H         2.196736        -1.605773        -2.432877
 H         3.615223        -2.191844        -1.195125
 H         2.137151        -3.019771         0.809436
 H         4.162475        -0.759673         1.105022
