19
Iteration:  1043charge 0 multiplicity 1
 C        -0.036943         0.211393         0.360935
 C         1.410915         0.096984         0.089047
 C         1.980145         0.735957        -1.189012
 C         3.308657        -0.097280        -1.184681
 C         2.750807        -1.502766        -1.448408
 C         2.131873        -1.338816        -0.144923
 O         1.524585        -2.463877         0.579347
 C         3.293697        -0.497624         0.294772
 O         2.424489         0.391273         1.136427
 H        -0.505448        -0.485485         1.160780
 H        -0.226253         1.316927         0.643818
 H        -0.504465         0.102284        -0.610663
 H         1.340412         0.609591        -2.089157
 H         2.261716         1.797897        -0.945363
 H         4.197404         0.304683        -1.604590
 H         2.129741        -1.872286        -2.312586
 H         3.502004        -2.247508        -1.454556
 H         2.202907        -3.105414         0.946778
 H         4.278394        -0.715491         0.823385
