19
Iteration:  1167
 C         0.074084         0.291125         0.448714
 C         1.413138         0.059742         0.068222
 C         2.024384         0.768250        -1.129475
 C         3.233147        -0.177624        -1.153882
 C         2.671646        -1.551380        -1.531436
 C         2.094497        -1.393841        -0.140925
 O         1.604340        -2.448566         0.532715
 C         3.243341        -0.474070         0.400558
 O         2.380315         0.388368         1.029887
 H        -0.217484        -0.238134         1.300839
 H         0.085771         1.354369         0.528464
 H        -0.680460         0.101776        -0.364555
 H         1.582772         0.735719        -2.206577
 H         2.219700         1.809368        -0.861103
 H         4.069699         0.352192        -1.707474
 H         2.024082        -1.696994        -2.377762
 H         3.513894        -2.202580        -1.318765
 H         2.360231        -2.984569         0.945253
 H         4.165246        -0.702290         0.857768
