19
Iteration:  1562
 C         0.042959         0.186629         0.577911
 C         1.420987         0.108327         0.100846
 C         2.036775         0.718547        -1.167858
 C         3.369913        -0.148322        -1.220305
 C         2.597636        -1.502809        -1.507067
 C         2.066588        -1.320137        -0.111472
 O         1.450690        -2.388423         0.511427
 C         3.259452        -0.511235         0.291085
 O         2.541746         0.435301         1.033048
 H        -0.017540        -0.709328         1.237267
 H        -0.150461         1.114770         1.115361
 H        -0.788402         0.079085        -0.142609
 H         1.732573         0.526310        -2.156234
 H         2.187104         1.711610        -0.786331
 H         4.145889         0.189867        -1.749922
 H         1.852632        -1.820175        -2.415177
 H         3.283991        -2.394938        -1.370417
 H         2.175816        -3.034405         0.482747
 H         4.100835        -0.938454         0.852885
